Info: SIMULATION PARAMETERS:
Info: TIMESTEP               2
Info: NUMBER OF STEPS        0
Info: STEPS PER CYCLE        20
Info: PERIODIC CELL BASIS 1  60 0 0
Info: PERIODIC CELL BASIS 2  0 60 0
Info: PERIODIC CELL BASIS 3  0 0 60
Info: PERIODIC CELL CENTER   0 0 0
Info: WRAPPING WATERS AROUND PERIODIC BOUNDARIES ON OUTPUT.
Info: WRAPPING ALL CLUSTERS AROUND PERIODIC BOUNDARIES ON OUTPUT.
Info: FIRST LDB TIMESTEP     100
Info: LAST LDB TIMESTEP     -1
Info: HOM BACKGROUND SCALING 1
Info: PME BACKGROUND SCALING 1
Info: MIN ATOMS PER PATCH    40
Info: INITIAL TEMPERATURE    298
Info: CENTER OF MASS MOVING INITIALLY? NO
Info: DIELECTRIC             1
Info: EXCLUDE                SCALED ONE-FOUR
Info: 1-4 ELECTROSTATICS SCALED BY 1
Info: MODIFIED 1-4 VDW PARAMETERS WILL BE USED
Info: DCD FILENAME           7.5/Pre75_0.dcd
Info: DCD FREQUENCY          5000
Info: DCD FIRST STEP         5000
Info: DCD FILE WILL CONTAIN UNIT CELL DATA
Info: NO EXTENDED SYSTEM TRAJECTORY OUTPUT
Info: NO VELOCITY DCD OUTPUT
Info: NO FORCE DCD OUTPUT
Info: OUTPUT FILENAME        7.5/Pre75_0
Info: BINARY OUTPUT FILES WILL BE USED
Info: NO RESTART FILE
Info: SWITCHING ACTIVE
Info: VDW FORCE SWITCHING ACTIVE
Info: SWITCHING ON           10
Info: SWITCHING OFF          12
Info: PAIRLIST DISTANCE      14
Info: PAIRLIST SHRINK RATE   0.01
Info: PAIRLIST GROW RATE     0.01
Info: PAIRLIST TRIGGER       0.3
Info: PAIRLISTS PER CYCLE    2
Info: PAIRLISTS ENABLED
Info: MARGIN                 2
Info: HYDROGEN GROUP CUTOFF  2.5
Info: PATCH DIMENSION        18.5
Info: ENERGY OUTPUT STEPS    5000
Info: CROSSTERM ENERGY INCLUDED IN DIHEDRAL
Info: TIMING OUTPUT STEPS    50000
Info: THERMODYNAMIC INTEGRATION (TI) ON
Info: TI LAMBDA VALUE     0
Info: TI INTRA-ALCHEMICAL NON-BONDED INTERACTIONS WILL BE DECOUPLED
Info: TI INTRA-ALCHEMICAL BONDED INTERACTIONS WILL BE DECOUPLED
Info: TI VDW SHIFTING COEFFICIENT 0
Info: TI ELEC. ACTIVE FOR ANNIHILATED PARTICLES BETWEEN LAMBDA = 0 AND LAMBDA = 1
Info: TI ELEC. ACTIVE FOR EXNIHILATED PARTICLES BETWEEN LAMBDA = 0 AND LAMBDA = 1
Info: TI VDW ACTIVE FOR ANNIHILATED PARTICLES BETWEEN LAMBDA = 0 AND LAMBDA = 1
Info: TI VDW ACTIVE FOR EXNIHILATED PARTICLES BETWEEN LAMBDA = 0 AND LAMBDA = 1
Info: TI BOND ACTIVE FOR ANNIHILATED PARTICLES BETWEEN LAMBDA = 0 AND LAMBDA = 1
Info: TI BOND ACTIVE FOR EXNIHILATED PARTICLES BETWEEN LAMBDA = 0 AND LAMBDA = 1
Info: LANGEVIN DYNAMICS ACTIVE
Info: LANGEVIN TEMPERATURE   298
Info: LANGEVIN USING BBK INTEGRATOR
Info: LANGEVIN DAMPING COEFFICIENT IS 1 INVERSE PS
Info: LANGEVIN DYNAMICS NOT APPLIED TO HYDROGENS
Info: PARTICLE MESH EWALD (PME) ACTIVE
Info: PME TOLERANCE               1e-06
Info: PME EWALD COEFFICIENT       0.257952
Info: PME INTERPOLATION ORDER     4
Info: PME GRID DIMENSIONS         60 60 60
Info: PME MAXIMUM GRID SPACING    1
Info: FULL ELECTROSTATIC EVALUATION FREQUENCY      2
Info: USING VERLET I (r-RESPA) MTS SCHEME.
Info: C1 SPLITTING OF LONG RANGE ELECTROSTATICS
Info: PLACING ATOMS IN PATCHES BY HYDROGEN GROUPS
Info: RIGID BONDS TO HYDROGEN : ALL
Info:         ERROR TOLERANCE : 1e-08
Info:          MAX ITERATIONS : 100
Info: RIGID WATER USING SETTLE ALGORITHM
Info: RANDOM NUMBER SEED     1685241193
Info: USE HYDROGEN BONDS?    NO
Info: COORDINATE PDB         ../topology/preD950N.pdb
Info: STRUCTURE FILE         ../topology/preD950N.psf
Info: PARAMETER file: CHARMM format!
Info: PARAMETERS             ../../toppar/par_all36_carb.prm
Info: PARAMETERS             ../../toppar/par_all36_cgenff.prm
Info: PARAMETERS             ../../toppar/par_all36_lipid.prm
Info: PARAMETERS             ../../toppar/par_all36_na.prm
Info: PARAMETERS             ../../toppar/par_all36_prot.prm
Info: PARAMETERS             ../../toppar/par_all36_solvent.prm
Info: PARAMETERS             ../../toppar/par_cph36_prot.prm
Info: PARAMETERS             ../../toppar/toppar_all36_carb_glycopeptide.str
Info: PARAMETERS             ../../toppar/toppar_water_ions_namd.str
Info: USING ARITHMETIC MEAN TO COMBINE L-J SIGMA PARAMETERS
Info: SKIPPING rtf SECTION IN STREAM FILE
Info: SKIPPING rtf SECTION IN STREAM FILE
Info: SUMMARY OF PARAMETERS:
Info: 925 BONDS
Info: 2696 ANGLES
Info: 6608 DIHEDRAL
Info: 195 IMPROPER
Info: 6 CROSSTERM
Info: 366 VDW
Info: 6 VDW_PAIRS
Info: 0 NBTHOLE_PAIRS
Info: READING EXTRA BONDS FILE 7.5/namdcph.sw.extrabonds
Info: To read alchdata from file: coordinate pdb file (default)
Info: To read alchflag data from column: 5
Info: LONG-RANGE LJ: APPLYING ANALYTICAL CORRECTIONS TO ENERGY AND PRESSURE
Info: LONG-RANGE LJ: AVERAGE A0 AND B0 COEFFICIENTS 257940 AND 189.542
Info: LONG-RANGE LJ: AVERAGE A1 AND B1 COEFFICIENTS 257940 AND 189.542
Info: STRUCTURE SUMMARY:
Info: 859 ATOMS
Info: 860 BONDS
Info: 1555 ANGLES
Info: 2254 DIHEDRALS
Info: 177 IMPROPERS
Info: 54 CROSSTERMS
Info: 0 EXCLUSIONS
Info: 436 RIGID BONDS
Info: ALCH: 0 ATOMS TO DISAPPEAR IN FINAL STATE
Info: ALCH: 0 ATOMS TO APPEAR IN FINAL STATE
Info: 2141 DEGREES OF FREEDOM
Info: 423 HYDROGEN GROUPS
Info: 4 ATOMS IN LARGEST HYDROGEN GROUP
Info: 423 MIGRATION GROUPS
Info: 4 ATOMS IN LARGEST MIGRATION GROUP
Info: TOTAL MASS = 6018.79 amu
Info: TOTAL CHARGE = 2 e
Info: MASS DENSITY = 0.0462716 g/cm^3
Info: ATOM DENSITY = 0.00397685 atoms/A^3
Info: ADDED 4663 IMPLICIT EXCLUSIONS
Info: NONBONDED TABLE R-SQUARED SPACING: 0.0625
Info: NONBONDED TABLE SIZE: 769 POINTS
Info: REMOVING COM VELOCITY 0.55116 -0.176398 0.0741549
TCL: Setting parameter alchLambdaFreq to 1
Info: NONBONDED TABLE R-SQUARED SPACING: 0.0625
Info: NONBONDED TABLE SIZE: 769 POINTS
TCL: Setting parameter alch to off
Info: NONBONDED TABLE R-SQUARED SPACING: 0.0625
Info: NONBONDED TABLE SIZE: 769 POINTS
TCL: namdcph) initializing constant pH PSF...
TCL: WARNING! Building new atom PP1:918:HE1 with unknown mass.
TCL:          This may cause issues, for example, with mass repartitioning.
TCL: WARNING! Building new atom PP1:918:HE2 with unknown mass.
TCL:          This may cause issues, for example, with mass repartitioning.
TCL: WARNING! Building new atom PP1:936:HD1 with unknown mass.
TCL:          This may cause issues, for example, with mass repartitioning.
TCL: WARNING! Building new atom PP1:936:HD2 with unknown mass.
TCL:          This may cause issues, for example, with mass repartitioning.
TCL: cphpsfgen) creating new alchemical side chain for PP1:918:GLU
TCL: cphpsfgen) merging alchemical sidechains for PP1:918:GLU
TCL: cphpsfgen) creating new alchemical side chain for PP1:921:LYS
TCL: cphpsfgen) merging alchemical sidechains for PP1:921:LYS
TCL: cphpsfgen) creating new alchemical side chain for PP1:933:LYS
TCL: cphpsfgen) merging alchemical sidechains for PP1:933:LYS
TCL: cphpsfgen) creating new alchemical side chain for PP1:936:ASP
TCL: cphpsfgen) merging alchemical sidechains for PP1:936:ASP
TCL: cphpsfgen) creating new alchemical side chain for PP1:947:LYS
TCL: cphpsfgen) merging alchemical sidechains for PP1:947:LYS
TCL: cphpsfgen) creating new alchemical side chain for PP1:964:LYS
TCL: cphpsfgen) merging alchemical sidechains for PP1:964:LYS
TCL: namdcph) ***************************************
TCL: namdcph) CONSTANT pH MD ACTIVE
TCL: namdcph) SYSTEM pH 7.5
TCL: namdcph) CONSTANT pH CONFIGURATION FILE(S)
TCL: namdcph) ../../toppar/conf_cph36_prot.json
TCL: namdcph) NONEQUILIBRIUM SWITCH PARAMETERS:
TCL: namdcph) ALCHEMICAL FORCE CONSTANT 100.0 kcal/mol-A^2
TCL: namdcph) neMD/MC CRITERION TEMPERATURE 298.0
TCL: namdcph) TEMPORARY FILE INFORMATION:
TCL: namdcph) cpH TOPOLOGY FILE BASENAME 7.5/namdcph.md
TCL: namdcph) neMD/MC TRAJECTORY BASENAME 7.5/namdcph.sw
TCL: namdcph) ***************************************
TCL: namdcph) ***************************************
TCL: namdcph) TITRATABLE RESIDUE DEFINITIONS:
TCL: namdcph) HIS ASP GLU CYS LYS
TCL: namdcph) TITRATABLE SYSTEM SUMMARY:
TCL: namdcph) 6 RESIDUE(S)
TCL: namdcph) 16 PROTONATION SITE(S)
TCL: namdcph) ***************************************
TCL: namdcph) segid:resid:resname : state : pKai
TCL: namdcph) PP1:918:GLU         :     D : 4.68
TCL: namdcph) PP1:921:LYS         :     P : 10.47
TCL: namdcph) PP1:933:LYS         :     P : 10.42
TCL: namdcph) PP1:936:ASP         :     D : 3.83
TCL: namdcph) PP1:947:LYS         :     P : 10.47
TCL: namdcph) PP1:964:LYS         :     P : 10.40
TCL: namdcph) ***************************************
TCL: namdcph) *************************************************
TCL: namdcph) CONSTANT pH neMD/MC MOVES:
TCL: namdcph) MAX. ATTEMPTS PER CYCLE: 1
TCL: namdcph) ONE RESIDUE MOVES
TCL: namdcph) move label     : numsteps   weight
TCL: namdcph) PP1:918:GLU    :    75000     1.00
TCL: namdcph) PP1:921:LYS    :    75000     1.00
TCL: namdcph) PP1:933:LYS    :    75000     1.00
TCL: namdcph) PP1:936:ASP    :    75000     1.00
TCL: namdcph) PP1:947:LYS    :    75000     1.00
TCL: namdcph) PP1:964:LYS    :    75000     1.00
TCL: namdcph) *************************************************
TCL: namdcph) clearing extraBondsFile 7.5/namdcph.sw.extrabonds
TCL: Reloading molecular structure from file 7.5/namdcph.md.psf and pdb file 7.5/namdcph.md.pdb
Info: READING EXTRA BONDS FILE 7.5/namdcph.sw.extrabonds
Info: LONG-RANGE LJ: APPLYING ANALYTICAL CORRECTIONS TO ENERGY AND PRESSURE
Info: LONG-RANGE LJ: AVERAGE A AND B COEFFICIENTS 257940 AND 189.542
Info: STRUCTURE SUMMARY:
Info: 863 ATOMS
Info: 864 BONDS
Info: 1559 ANGLES
Info: 2262 DIHEDRALS
Info: 177 IMPROPERS
Info: 54 CROSSTERMS
Info: 0 EXCLUSIONS
Info: 440 RIGID BONDS
Info: 2149 DEGREES OF FREEDOM
Info: 423 HYDROGEN GROUPS
Info: 4 ATOMS IN LARGEST HYDROGEN GROUP
Info: 423 MIGRATION GROUPS
Info: 4 ATOMS IN LARGEST MIGRATION GROUP
Info: TOTAL MASS = 6022.82 amu
Info: TOTAL CHARGE = 2 e
Info: MASS DENSITY = 0.0463026 g/cm^3
Info: ATOM DENSITY = 0.00399537 atoms/A^3
Info: ADDED 4679 IMPLICIT EXCLUSIONS
Info: NONBONDED TABLE R-SQUARED SPACING: 0.0625
Info: NONBONDED TABLE SIZE: 769 POINTS
TCL: Reinitializing atom data from files with basename 7.5/namdcph.md
Info: REMOVING COM VELOCITY 0.0356685 0.0855797 0.000263078
TCL: Minimizing for 100 steps
ETITLE: TS BOND ANGLE DIHED IMPRP ELECT VDW BOUNDARY MISC KINETIC TOTAL TEMP POTENTIAL TOTAL3 TEMPAVG PRESSURE GPRESSURE VOLUME PRESSAVG GPRESSAVG
ENERGY: 0 50.7174 99.6492 448.8524 0.5597 -655.8481 99999999999.9999 0.0000 0.0000 0.0000 99999999999.9999 0.0000 99999999999.9999 99999999999.9999 0.0000 99999999999.9999 99999999999.9999 216000.0000 99999999999.9999 99999999999.9999
ENERGY: 20 3555.9403 1179.2157 518.1111 80.2523 -676.8478 4401.3562 0.0000 0.0000 0.0000 9058.0278 0.0000 9058.0278 9058.0278 0.0000 5694.7745 6138.4307 216000.0000 5694.7745 6138.4307
ENERGY: 40 652.0906 1033.8467 522.8706 21.8032 -695.4075 1458.0947 0.0000 0.0000 0.0000 2993.2982 0.0000 2993.2982 2993.2982 0.0000 2694.7208 2818.7179 216000.0000 2694.7208 2818.7179
ENERGY: 60 228.5523 838.5874 540.9221 27.4815 -715.2870 718.9429 0.0000 0.0000 0.0000 1639.1992 0.0000 1639.1992 1639.1992 0.0000 1736.4874 1813.7232 216000.0000 1736.4874 1813.7232
ENERGY: 80 162.4418 530.5710 541.8954 28.8082 -733.2951 304.2884 0.0000 0.0000 0.0000 834.7097 0.0000 834.7097 834.7097 0.0000 1114.8093 1135.1808 216000.0000 1114.8093 1135.1808
ENERGY: 100 87.6172 422.4764 531.7660 16.9213 -739.4980 163.5337 0.0000 0.0000 0.0000 482.8165 0.0000 482.8165 482.8165 0.0000 762.0883 792.6659 216000.0000 762.0883 792.6659
TCL: Setting parameter firstTimeStep to 0
TCL: Running for 500 steps
ETITLE: TS BOND ANGLE DIHED IMPRP ELECT VDW BOUNDARY MISC KINETIC TOTAL TEMP POTENTIAL TOTAL3 TEMPAVG PRESSURE GPRESSURE VOLUME PRESSAVG GPRESSAVG
ENERGY: 0 87.6172 422.4764 531.7660 16.9213 -739.4980 163.5337 0.0000 0.0000 639.9758 1122.7923 299.7212 482.8165 1117.1335 299.7212 874.1031 875.5757 216000.0000 874.1031 875.5757
TCL: namdcph) Proposal rejected.
TCL: Running for 500 steps without repeating first step
TCL: namdcph) Proposal rejected.
TCL: Running for 500 steps without repeating first step
TCL: namdcph) Proposal rejected.
TCL: Running for 500 steps without repeating first step
TCL: namdcph) Proposal rejected.
TCL: Running for 500 steps without repeating first step
TCL: namdcph) Proposal rejected.
TCL: Running for 500 steps without repeating first step
TCL: namdcph) Proposal rejected.
TCL: Running for 500 steps without repeating first step
TCL: namdcph) Proposal rejected.
TCL: Running for 500 steps without repeating first step
TCL: namdcph) Proposal rejected.
TCL: Running for 500 steps without repeating first step
TCL: namdcph) Proposal rejected.
TCL: Running for 500 steps without repeating first step
ETITLE: TS BOND ANGLE DIHED IMPRP ELECT VDW BOUNDARY MISC KINETIC TOTAL TEMP POTENTIAL TOTAL3 TEMPAVG PRESSURE GPRESSURE VOLUME PRESSAVG GPRESSAVG
ENERGY: 5000 151.1868 506.1970 491.6340 37.6358 -1302.8294 -74.9034 0.0000 0.0000 663.6809 472.6018 310.8231 -191.0791 480.7822 310.3523 91.6583 91.5836 216000.0000 -0.4573 -0.4495
TCL: namdcph) Proposal rejected.
TCL: Running for 500 steps without repeating first step
TCL: namdcph) Proposal rejected.
TCL: Running for 500 steps without repeating first step
TCL: namdcph) Proposal rejected.
TCL: Running for 500 steps without repeating first step
TCL: namdcph) Proposal rejected.
TCL: Running for 500 steps without repeating first step
TCL: namdcph) Proposal rejected.
TCL: Running for 500 steps without repeating first step
TCL: namdcph) Proposal rejected.
TCL: Running for 500 steps without repeating first step
TCL: namdcph) Proposal rejected.
TCL: Running for 500 steps without repeating first step
TCL: namdcph) Proposal rejected.
TCL: Running for 500 steps without repeating first step
TCL: namdcph) Proposal rejected.
TCL: Running for 500 steps without repeating first step
TCL: namdcph) Proposal rejected.
TCL: Running for 500 steps without repeating first step
ETITLE: TS BOND ANGLE DIHED IMPRP ELECT VDW BOUNDARY MISC KINETIC TOTAL TEMP POTENTIAL TOTAL3 TEMPAVG PRESSURE GPRESSURE VOLUME PRESSAVG GPRESSAVG
ENERGY: 10000 165.2031 468.6945 508.7305 34.9158 -1268.1377 -107.6970 0.0000 0.0000 659.4223 461.1317 308.8287 -198.2907 468.2324 297.4346 -50.1867 -51.4855 216000.0000 3.4092 3.4146
TCL: namdcph) Proposal rejected.
TCL: Running for 500 steps without repeating first step
TCL: namdcph) Proposal rejected.
TCL: Running for 500 steps without repeating first step
TCL: namdcph) Proposal rejected.
TCL: Running for 500 steps without repeating first step
TCL: namdcph) Proposal rejected.
TCL: Running for 500 steps without repeating first step
TCL: namdcph) Proposal rejected.
TCL: Running for 500 steps without repeating first step
TCL: namdcph) Proposal rejected.
TCL: Running for 500 steps without repeating first step
TCL: namdcph) Proposal rejected.
TCL: Running for 500 steps without repeating first step
TCL: namdcph) Proposal rejected.
TCL: Running for 500 steps without repeating first step
TCL: namdcph) Proposal rejected.
TCL: Running for 500 steps without repeating first step
TCL: namdcph) Proposal rejected.
TCL: Running for 500 steps without repeating first step
ETITLE: TS BOND ANGLE DIHED IMPRP ELECT VDW BOUNDARY MISC KINETIC TOTAL TEMP POTENTIAL TOTAL3 TEMPAVG PRESSURE GPRESSURE VOLUME PRESSAVG GPRESSAVG
ENERGY: 15000 153.0942 521.8854 506.9556 31.1981 -1331.7102 -101.3066 0.0000 0.0000 634.9465 415.0630 297.3659 -219.8835 424.3137 302.9246 23.8057 23.2809 216000.0000 5.2956 5.2930
TCL: namdcph) Proposal rejected.
TCL: Running for 500 steps without repeating first step
TCL: namdcph) Proposal rejected.
TCL: Running for 500 steps without repeating first step
TCL: namdcph) Proposal rejected.
TCL: Running for 500 steps without repeating first step
TCL: namdcph) Proposal rejected.
TCL: Running for 500 steps without repeating first step
TCL: namdcph) Proposal rejected.
TCL: Running for 500 steps without repeating first step
TCL: namdcph) Proposal rejected.
TCL: Running for 500 steps without repeating first step
TCL: namdcph) Proposal rejected.
TCL: Running for 500 steps without repeating first step
TCL: namdcph) Proposal rejected.
TCL: Running for 500 steps without repeating first step
TCL: namdcph) Proposal rejected.
TCL: Running for 500 steps without repeating first step
TCL: namdcph) Proposal rejected.
TCL: Running for 500 steps without repeating first step
ETITLE: TS BOND ANGLE DIHED IMPRP ELECT VDW BOUNDARY MISC KINETIC TOTAL TEMP POTENTIAL TOTAL3 TEMPAVG PRESSURE GPRESSURE VOLUME PRESSAVG GPRESSAVG
ENERGY: 20000 180.0199 475.7803 515.1158 35.5916 -1330.3832 -117.2327 0.0000 0.0000 629.7051 388.5966 294.9111 -241.1084 396.8186 292.7422 -50.9575 -49.8454 216000.0000 1.4623 1.4566
TCL: namdcph) Proposal rejected.
TCL: Running for 500 steps without repeating first step
TCL: namdcph) Proposal rejected.
TCL: Running for 500 steps without repeating first step
TCL: namdcph) Proposal rejected.
TCL: Running for 500 steps without repeating first step
TCL: namdcph) Proposal rejected.
TCL: Running for 500 steps without repeating first step
TCL: namdcph) Proposal rejected.
TCL: Running for 500 steps without repeating first step
TCL: namdcph) Proposal rejected.
TCL: Running for 500 steps without repeating first step
TCL: namdcph) Proposal rejected.
TCL: Running for 500 steps without repeating first step
TCL: namdcph) Proposal rejected.
TCL: Running for 500 steps without repeating first step
TCL: namdcph) Proposal rejected.
TCL: Running for 500 steps without repeating first step
TCL: namdcph) Proposal rejected.
TCL: Running for 500 steps without repeating first step
ETITLE: TS BOND ANGLE DIHED IMPRP ELECT VDW BOUNDARY MISC KINETIC TOTAL TEMP POTENTIAL TOTAL3 TEMPAVG PRESSURE GPRESSURE VOLUME PRESSAVG GPRESSAVG
ENERGY: 25000 168.0000 504.7232 492.5638 35.1471 -1324.9496 -125.2325 0.0000 0.0000 637.4961 387.7481 298.5599 -249.7480 395.3988 290.8238 -116.8317 -115.3203 216000.0000 0.8739 0.8702
TCL: namdcph) Proposal rejected.
TCL: Running for 500 steps without repeating first step
TCL: namdcph) Proposal rejected.
TCL: Running for 500 steps without repeating first step
TCL: namdcph) Proposal rejected.
TCL: Running for 500 steps without repeating first step
TCL: namdcph) Proposal rejected.
TCL: Running for 500 steps without repeating first step
TCL: namdcph) Proposal rejected.
TCL: Running for 500 steps without repeating first step
TCL: namdcph) Proposal rejected.
TCL: Running for 500 steps without repeating first step
TCL: namdcph) Proposal rejected.
TCL: Running for 500 steps without repeating first step
TCL: namdcph) Proposal rejected.
TCL: Running for 500 steps without repeating first step
TCL: namdcph) Proposal rejected.
TCL: Running for 500 steps without repeating first step
TCL: namdcph) Proposal rejected.
TCL: Running for 500 steps without repeating first step
ETITLE: TS BOND ANGLE DIHED IMPRP ELECT VDW BOUNDARY MISC KINETIC TOTAL TEMP POTENTIAL TOTAL3 TEMPAVG PRESSURE GPRESSURE VOLUME PRESSAVG GPRESSAVG
ENERGY: 30000 160.0793 515.0151 523.0231 30.8588 -1351.7921 -113.6586 0.0000 0.0000 596.1381 359.6636 279.1907 -236.4745 366.7249 295.7286 78.4122 81.0869 216000.0000 -6.5907 -6.5931
TCL: namdcph) Proposal rejected.
TCL: Running for 500 steps without repeating first step
TCL: namdcph) Proposal rejected.
TCL: Running for 500 steps without repeating first step
TCL: namdcph) Proposal rejected.
TCL: Running for 500 steps without repeating first step
TCL: namdcph) Proposal rejected.
TCL: Running for 500 steps without repeating first step
TCL: namdcph) Proposal rejected.
TCL: Running for 500 steps without repeating first step
TCL: namdcph) Proposal rejected.
TCL: Running for 500 steps without repeating first step
TCL: namdcph) Proposal rejected.
TCL: Running for 500 steps without repeating first step
TCL: namdcph) Proposal rejected.
TCL: Running for 500 steps without repeating first step
TCL: namdcph) Proposal rejected.
TCL: Running for 500 steps without repeating first step
TCL: namdcph) Proposal rejected.
TCL: Running for 500 steps without repeating first step
ETITLE: TS BOND ANGLE DIHED IMPRP ELECT VDW BOUNDARY MISC KINETIC TOTAL TEMP POTENTIAL TOTAL3 TEMPAVG PRESSURE GPRESSURE VOLUME PRESSAVG GPRESSAVG
ENERGY: 35000 146.1171 518.7655 512.6752 30.0540 -1365.7854 -96.2245 0.0000 0.0000 627.2180 372.8198 293.7464 -254.3982 380.4960 296.7066 -16.6260 -13.6438 216000.0000 -1.1351 -1.1390
TCL: namdcph) Proposal rejected.
TCL: Running for 500 steps without repeating first step
TCL: namdcph) Proposal rejected.
TCL: Running for 500 steps without repeating first step
TCL: namdcph) Proposal rejected.
TCL: Running for 500 steps without repeating first step
TCL: namdcph) Proposal rejected.
TCL: Running for 500 steps without repeating first step
TCL: namdcph) Proposal rejected.
TCL: Running for 500 steps without repeating first step
TCL: namdcph) Proposal rejected.
TCL: Running for 500 steps without repeating first step
TCL: namdcph) Proposal rejected.
TCL: Running for 500 steps without repeating first step
TCL: namdcph) Proposal rejected.
TCL: Running for 500 steps without repeating first step
TCL: namdcph) Proposal rejected.
TCL: Running for 500 steps without repeating first step
TCL: namdcph) Proposal rejected.
TCL: Running for 500 steps without repeating first step
ETITLE: TS BOND ANGLE DIHED IMPRP ELECT VDW BOUNDARY MISC KINETIC TOTAL TEMP POTENTIAL TOTAL3 TEMPAVG PRESSURE GPRESSURE VOLUME PRESSAVG GPRESSAVG
ENERGY: 40000 165.2398 508.2308 508.8219 43.6508 -1350.7761 -108.1194 0.0000 0.0000 651.1984 418.2463 304.9772 -232.9522 425.7280 296.6819 -50.9005 -49.4549 216000.0000 -1.2639 -1.2516
TCL: namdcph) Proposal rejected.
TCL: Running for 500 steps without repeating first step
TCL: namdcph) Proposal rejected.
TCL: Running for 500 steps without repeating first step
TCL: namdcph) Proposal rejected.
TCL: Running for 500 steps without repeating first step
TCL: namdcph) Proposal rejected.
TCL: Running for 500 steps without repeating first step
TCL: namdcph) Proposal rejected.
TCL: Running for 500 steps without repeating first step
TCL: namdcph) Proposal rejected.
TCL: Running for 500 steps without repeating first step
TCL: namdcph) Proposal rejected.
TCL: Running for 500 steps without repeating first step
TCL: namdcph) Proposal rejected.
TCL: Running for 500 steps without repeating first step
TCL: namdcph) Proposal rejected.
TCL: Running for 500 steps without repeating first step
TCL: namdcph) Proposal rejected.
TCL: Running for 500 steps without repeating first step
ETITLE: TS BOND ANGLE DIHED IMPRP ELECT VDW BOUNDARY MISC KINETIC TOTAL TEMP POTENTIAL TOTAL3 TEMPAVG PRESSURE GPRESSURE VOLUME PRESSAVG GPRESSAVG
ENERGY: 45000 170.4230 508.9578 503.9293 40.1580 -1364.5107 -97.5214 0.0000 0.0000 623.6527 385.0886 292.0766 -238.5641 391.9294 301.5397 60.2186 61.9306 216000.0000 3.9619 3.9607
TCL: namdcph) Proposal rejected.
TCL: Running for 500 steps without repeating first step
TCL: namdcph) Proposal rejected.
TCL: Running for 500 steps without repeating first step
TCL: namdcph) Proposal rejected.
TCL: Running for 500 steps without repeating first step
TCL: namdcph) Proposal rejected.
TCL: Running for 500 steps without repeating first step
TCL: namdcph) Proposal rejected.
TCL: Running for 500 steps without repeating first step
TCL: namdcph) Proposal rejected.
TCL: Running for 500 steps without repeating first step
TCL: namdcph) Proposal rejected.
TCL: Running for 500 steps without repeating first step
TCL: namdcph) Proposal rejected.
TCL: Running for 500 steps without repeating first step
TCL: namdcph) Proposal rejected.
TCL: Running for 500 steps without repeating first step
TCL: namdcph) Proposal rejected.
TCL: Running for 500 steps without repeating first step
ETITLE: TS BOND ANGLE DIHED IMPRP ELECT VDW BOUNDARY MISC KINETIC TOTAL TEMP POTENTIAL TOTAL3 TEMPAVG PRESSURE GPRESSURE VOLUME PRESSAVG GPRESSAVG
ENERGY: 50000 161.7794 496.1976 512.3322 40.7588 -1370.0709 -82.8144 0.0000 0.0000 636.0707 394.2534 297.8923 -241.8173 402.4713 293.5711 48.5076 48.6258 216000.0000 -1.1110 -1.1135
TCL: namdcph) Proposal rejected.
TCL: Running for 500 steps without repeating first step
TCL: namdcph) Proposal rejected.
TCL: Running for 500 steps without repeating first step
TCL: namdcph) Proposal rejected.
TCL: Running for 500 steps without repeating first step
TCL: namdcph) Proposal rejected.
TCL: Running for 500 steps without repeating first step
TCL: namdcph) Proposal rejected.
TCL: Running for 500 steps without repeating first step
TCL: namdcph) Proposal rejected.
TCL: Running for 500 steps without repeating first step
TCL: namdcph) Proposal rejected.
TCL: Running for 500 steps without repeating first step
TCL: namdcph) Proposal rejected.
TCL: Running for 500 steps without repeating first step
TCL: namdcph) Proposal rejected.
TCL: Running for 500 steps without repeating first step
TCL: namdcph) Proposal rejected.
TCL: Running for 500 steps without repeating first step
ETITLE: TS BOND ANGLE DIHED IMPRP ELECT VDW BOUNDARY MISC KINETIC TOTAL TEMP POTENTIAL TOTAL3 TEMPAVG PRESSURE GPRESSURE VOLUME PRESSAVG GPRESSAVG
ENERGY: 55000 145.4147 528.2366 509.1513 30.9121 -1353.8967 -97.0212 0.0000 0.0000 586.1162 348.9131 274.4971 -237.2031 357.0161 296.8604 8.3913 9.2384 216000.0000 0.3671 0.3763
TCL: namdcph) Proposal rejected.
TCL: Running for 500 steps without repeating first step
TCL: namdcph) Proposal rejected.
TCL: Running for 500 steps without repeating first step
TCL: namdcph) Proposal rejected.
TCL: Running for 500 steps without repeating first step
TCL: namdcph) Proposal rejected.
TCL: Running for 500 steps without repeating first step
TCL: namdcph) Proposal rejected.
TCL: Running for 500 steps without repeating first step
TCL: namdcph) Proposal rejected.
TCL: Running for 500 steps without repeating first step
TCL: namdcph) Proposal rejected.
TCL: Running for 500 steps without repeating first step
TCL: namdcph) Proposal rejected.
TCL: Running for 500 steps without repeating first step
TCL: namdcph) Proposal rejected.
TCL: Running for 500 steps without repeating first step
TCL: namdcph) Proposal rejected.
TCL: Running for 500 steps without repeating first step
ETITLE: TS BOND ANGLE DIHED IMPRP ELECT VDW BOUNDARY MISC KINETIC TOTAL TEMP POTENTIAL TOTAL3 TEMPAVG PRESSURE GPRESSURE VOLUME PRESSAVG GPRESSAVG
ENERGY: 60000 158.1333 501.1466 518.4833 37.5497 -1326.9035 -128.8735 0.0000 0.0000 622.5961 382.1321 291.5818 -240.4640 390.0958 291.7933 -162.2455 -164.2732 216000.0000 -3.1301 -3.1280
TCL: namdcph) Proposal rejected.
TCL: Running for 500 steps without repeating first step
TCL: namdcph) Proposal rejected.
TCL: Running for 500 steps without repeating first step
TCL: namdcph) Proposal rejected.
TCL: Running for 500 steps without repeating first step
TCL: namdcph) Proposal rejected.
TCL: Running for 500 steps without repeating first step
TCL: namdcph) Proposal rejected.
TCL: Running for 500 steps without repeating first step
TCL: namdcph) Proposal rejected.
TCL: Running for 500 steps without repeating first step
TCL: namdcph) Proposal rejected.
TCL: Running for 500 steps without repeating first step
TCL: namdcph) Proposal rejected.
TCL: Running for 500 steps without repeating first step
TCL: namdcph) Proposal rejected.
TCL: Running for 500 steps without repeating first step
TCL: namdcph) Proposal rejected.
TCL: Running for 500 steps without repeating first step
ETITLE: TS BOND ANGLE DIHED IMPRP ELECT VDW BOUNDARY MISC KINETIC TOTAL TEMP POTENTIAL TOTAL3 TEMPAVG PRESSURE GPRESSURE VOLUME PRESSAVG GPRESSAVG
ENERGY: 65000 171.6136 493.0488 511.5921 36.8709 -1362.0934 -95.5965 0.0000 0.0000 624.9795 380.4148 292.6980 -244.5647 387.7173 297.1264 -13.2647 -13.0321 216000.0000 9.8224 9.8166
TCL: namdcph) Proposal rejected.
TCL: Running for 500 steps without repeating first step
TCL: namdcph) Proposal rejected.
TCL: Running for 500 steps without repeating first step
TCL: namdcph) Proposal rejected.
TCL: Running for 500 steps without repeating first step
TCL: namdcph) Proposal rejected.
TCL: Running for 500 steps without repeating first step
TCL: namdcph) Proposal rejected.
TCL: Running for 500 steps without repeating first step
TCL: namdcph) Proposal rejected.
TCL: Running for 500 steps without repeating first step
TCL: namdcph) Proposal rejected.
TCL: Running for 500 steps without repeating first step
TCL: namdcph) Proposal rejected.
TCL: Running for 500 steps without repeating first step
TCL: namdcph) Proposal rejected.
TCL: Running for 500 steps without repeating first step
TCL: namdcph) Proposal rejected.
TCL: Running for 500 steps without repeating first step
ETITLE: TS BOND ANGLE DIHED IMPRP ELECT VDW BOUNDARY MISC KINETIC TOTAL TEMP POTENTIAL TOTAL3 TEMPAVG PRESSURE GPRESSURE VOLUME PRESSAVG GPRESSAVG
ENERGY: 70000 175.9471 508.8163 516.7537 34.9430 -1374.0450 -107.8521 0.0000 0.0000 636.5618 391.1249 298.1224 -245.4369 398.0186 296.9823 -18.2675 -17.0711 216000.0000 2.4164 2.4235
TCL: namdcph) Proposal rejected.
TCL: Running for 500 steps without repeating first step
TCL: namdcph) Proposal rejected.
TCL: Running for 500 steps without repeating first step
TCL: namdcph) Proposal rejected.
TCL: Running for 500 steps without repeating first step
TCL: namdcph) Proposal rejected.
TCL: Running for 500 steps without repeating first step
TCL: namdcph) Proposal rejected.
TCL: Running for 500 steps without repeating first step
TCL: namdcph) Proposal rejected.
TCL: Running for 500 steps without repeating first step
TCL: namdcph) Proposal rejected.
TCL: Running for 500 steps without repeating first step
TCL: namdcph) Proposal rejected.
TCL: Running for 500 steps without repeating first step
TCL: namdcph) Proposal rejected.
TCL: Running for 500 steps without repeating first step
TCL: namdcph) Proposal rejected.
TCL: Running for 500 steps without repeating first step
ETITLE: TS BOND ANGLE DIHED IMPRP ELECT VDW BOUNDARY MISC KINETIC TOTAL TEMP POTENTIAL TOTAL3 TEMPAVG PRESSURE GPRESSURE VOLUME PRESSAVG GPRESSAVG
ENERGY: 75000 169.9736 512.7298 512.3643 32.2346 -1340.4921 -116.1263 0.0000 0.0000 635.9933 406.6773 297.8561 -229.3160 415.6936 294.7012 -77.4038 -74.0630 216000.0000 6.6560 6.6576
TCL: namdcph) Proposal rejected.
TCL: Running for 500 steps without repeating first step
TCL: namdcph) Proposal rejected.
TCL: Running for 500 steps without repeating first step
TCL: namdcph) Proposal rejected.
TCL: Running for 500 steps without repeating first step
TCL: namdcph) Proposal rejected.
TCL: Running for 500 steps without repeating first step
TCL: namdcph) Proposal rejected.
TCL: Running for 500 steps without repeating first step
TCL: namdcph) Proposal rejected.
TCL: Running for 500 steps without repeating first step
TCL: namdcph) Proposal rejected.
TCL: Running for 500 steps without repeating first step
TCL: namdcph) Proposal rejected.
TCL: Running for 500 steps without repeating first step
TCL: namdcph) Proposal rejected.
TCL: Running for 500 steps without repeating first step
TCL: namdcph) Proposal rejected.
TCL: Running for 500 steps without repeating first step
ETITLE: TS BOND ANGLE DIHED IMPRP ELECT VDW BOUNDARY MISC KINETIC TOTAL TEMP POTENTIAL TOTAL3 TEMPAVG PRESSURE GPRESSURE VOLUME PRESSAVG GPRESSAVG
ENERGY: 80000 139.7690 549.8266 503.7892 34.6092 -1371.1711 -106.5895 0.0000 0.0000 634.7736 385.0070 297.2849 -249.7666 392.6151 295.7714 73.5940 77.3548 216000.0000 2.3724 2.3658
TCL: namdcph) Proposal rejected.
TCL: Running for 500 steps without repeating first step
TCL: namdcph) Proposal rejected.
TCL: Running for 500 steps without repeating first step
TCL: namdcph) Proposal rejected.
TCL: Running for 500 steps without repeating first step
TCL: namdcph) Proposal rejected.
TCL: Running for 500 steps without repeating first step
TCL: namdcph) Proposal rejected.
TCL: Running for 500 steps without repeating first step
TCL: namdcph) Proposal rejected.
TCL: Running for 500 steps without repeating first step
TCL: namdcph) Proposal rejected.
TCL: Running for 500 steps without repeating first step
TCL: namdcph) Proposal rejected.
TCL: Running for 500 steps without repeating first step
TCL: namdcph) Proposal rejected.
TCL: Running for 500 steps without repeating first step
TCL: namdcph) Proposal rejected.
TCL: Running for 500 steps without repeating first step
ETITLE: TS BOND ANGLE DIHED IMPRP ELECT VDW BOUNDARY MISC KINETIC TOTAL TEMP POTENTIAL TOTAL3 TEMPAVG PRESSURE GPRESSURE VOLUME PRESSAVG GPRESSAVG
ENERGY: 85000 177.5126 508.5989 511.8170 29.7589 -1363.8334 -105.6763 0.0000 0.0000 623.5626 381.7403 292.0344 -241.8223 388.7782 292.5598 -78.8364 -77.7154 216000.0000 2.6803 2.6781
TCL: namdcph) Proposal rejected.
TCL: Running for 500 steps without repeating first step
TCL: namdcph) Proposal rejected.
TCL: Running for 500 steps without repeating first step
TCL: namdcph) Proposal rejected.
TCL: Running for 500 steps without repeating first step
TCL: namdcph) Proposal rejected.
TCL: Running for 500 steps without repeating first step
TCL: namdcph) Proposal rejected.
TCL: Running for 500 steps without repeating first step
TCL: namdcph) Proposal rejected.
TCL: Running for 500 steps without repeating first step
TCL: namdcph) Proposal rejected.
TCL: Running for 500 steps without repeating first step
TCL: namdcph) Proposal rejected.
TCL: Running for 500 steps without repeating first step
TCL: namdcph) Proposal rejected.
TCL: Running for 500 steps without repeating first step
TCL: namdcph) Proposal rejected.
TCL: Running for 500 steps without repeating first step
ETITLE: TS BOND ANGLE DIHED IMPRP ELECT VDW BOUNDARY MISC KINETIC TOTAL TEMP POTENTIAL TOTAL3 TEMPAVG PRESSURE GPRESSURE VOLUME PRESSAVG GPRESSAVG
ENERGY: 90000 155.5848 509.0356 492.5070 43.1788 -1385.6540 -67.9835 0.0000 0.0000 649.3178 395.9865 304.0964 -253.3312 403.0202 299.0485 65.5939 70.6340 216000.0000 3.9521 3.9573
TCL: namdcph) Proposal rejected.
TCL: Running for 500 steps without repeating first step
TCL: namdcph) Proposal rejected.
TCL: Running for 500 steps without repeating first step
TCL: namdcph) Proposal rejected.
TCL: Running for 500 steps without repeating first step
TCL: namdcph) Proposal rejected.
TCL: Running for 500 steps without repeating first step
TCL: namdcph) Proposal rejected.
TCL: Running for 500 steps without repeating first step
TCL: namdcph) Proposal rejected.
TCL: Running for 500 steps without repeating first step
TCL: namdcph) Proposal rejected.
TCL: Running for 500 steps without repeating first step
TCL: namdcph) Proposal rejected.
TCL: Running for 500 steps without repeating first step
TCL: namdcph) Proposal rejected.
TCL: Running for 500 steps without repeating first step
TCL: namdcph) Proposal rejected.
TCL: Running for 500 steps without repeating first step
ETITLE: TS BOND ANGLE DIHED IMPRP ELECT VDW BOUNDARY MISC KINETIC TOTAL TEMP POTENTIAL TOTAL3 TEMPAVG PRESSURE GPRESSURE VOLUME PRESSAVG GPRESSAVG
ENERGY: 95000 181.1982 525.3595 501.8384 33.1479 -1356.5667 -127.6862 0.0000 0.0000 637.3513 394.6424 298.4921 -242.7089 402.3254 296.5473 -140.6698 -140.8411 216000.0000 0.3129 0.3130
TCL: namdcph) Proposal rejected.
TCL: Running for 500 steps without repeating first step
TCL: namdcph) Proposal rejected.
TCL: Running for 500 steps without repeating first step
TCL: namdcph) Proposal rejected.
TCL: Running for 500 steps without repeating first step
TCL: namdcph) Proposal rejected.
TCL: Running for 500 steps without repeating first step
TCL: namdcph) Proposal rejected.
TCL: Running for 500 steps without repeating first step
TCL: namdcph) Proposal rejected.
TCL: Running for 500 steps without repeating first step
TCL: namdcph) Proposal rejected.
TCL: Running for 500 steps without repeating first step
TCL: namdcph) Proposal rejected.
TCL: Running for 500 steps without repeating first step
TCL: namdcph) Proposal rejected.
TCL: Running for 500 steps without repeating first step
TCL: namdcph) Proposal rejected.
TCL: Running for 500 steps without repeating first step
ETITLE: TS BOND ANGLE DIHED IMPRP ELECT VDW BOUNDARY MISC KINETIC TOTAL TEMP POTENTIAL TOTAL3 TEMPAVG PRESSURE GPRESSURE VOLUME PRESSAVG GPRESSAVG
ENERGY: 100000 165.0318 539.9360 499.3704 33.3988 -1361.3681 -113.9097 0.0000 0.0000 662.9542 425.4135 310.4828 -237.5407 433.7044 299.4701 -58.3687 -56.4522 216000.0000 4.3011 4.3004
TCL: namdcph) Proposal rejected.
TCL: Running for 500 steps without repeating first step
TCL: namdcph) Proposal rejected.
TCL: Running for 500 steps without repeating first step
TCL: namdcph) Proposal rejected.
TCL: Running for 500 steps without repeating first step
TCL: namdcph) Proposal rejected.
TCL: Running for 500 steps without repeating first step
TCL: namdcph) Proposal rejected.
TCL: Running for 500 steps without repeating first step
TCL: namdcph) Proposal rejected.
TCL: Running for 500 steps without repeating first step
TCL: namdcph) Proposal rejected.
TCL: Running for 500 steps without repeating first step
TCL: namdcph) Proposal rejected.
TCL: Running for 500 steps without repeating first step
TCL: namdcph) Proposal rejected.
TCL: Running for 500 steps without repeating first step
TCL: namdcph) Proposal rejected.
TCL: Running for 500 steps without repeating first step
ETITLE: TS BOND ANGLE DIHED IMPRP ELECT VDW BOUNDARY MISC KINETIC TOTAL TEMP POTENTIAL TOTAL3 TEMPAVG PRESSURE GPRESSURE VOLUME PRESSAVG GPRESSAVG
ENERGY: 105000 181.3617 517.5229 512.0819 32.4356 -1369.2080 -115.0120 0.0000 0.0000 685.8290 445.0112 321.1958 -240.8178 454.2917 298.6722 24.4707 22.4476 216000.0000 6.2897 6.2895
TCL: namdcph) Proposal rejected.
TCL: Running for 500 steps without repeating first step
TCL: namdcph) Proposal rejected.
TCL: Running for 500 steps without repeating first step
TCL: namdcph) Proposal rejected.
TCL: Running for 500 steps without repeating first step
TCL: namdcph) Proposal rejected.
TCL: Running for 500 steps without repeating first step
TCL: namdcph) Proposal rejected.
TCL: Running for 500 steps without repeating first step
TCL: namdcph) Proposal rejected.
TCL: Running for 500 steps without repeating first step
TCL: namdcph) Proposal rejected.
TCL: Running for 500 steps without repeating first step
TCL: namdcph) Proposal rejected.
TCL: Running for 500 steps without repeating first step
TCL: namdcph) Proposal rejected.
TCL: Running for 500 steps without repeating first step
TCL: namdcph) Proposal rejected.
TCL: Running for 500 steps without repeating first step
ETITLE: TS BOND ANGLE DIHED IMPRP ELECT VDW BOUNDARY MISC KINETIC TOTAL TEMP POTENTIAL TOTAL3 TEMPAVG PRESSURE GPRESSURE VOLUME PRESSAVG GPRESSAVG
ENERGY: 110000 180.0368 525.3110 505.6080 30.3601 -1404.4018 -89.2857 0.0000 0.0000 643.0081 390.6365 301.1414 -252.3716 397.8106 296.0732 28.5725 26.2044 216000.0000 2.8031 2.7935
TCL: namdcph) Proposal rejected.
TCL: Running for 500 steps without repeating first step
TCL: namdcph) Proposal rejected.
TCL: Running for 500 steps without repeating first step
TCL: namdcph) Proposal rejected.
TCL: Running for 500 steps without repeating first step
TCL: namdcph) Proposal rejected.
TCL: Running for 500 steps without repeating first step
TCL: namdcph) Proposal rejected.
TCL: Running for 500 steps without repeating first step
TCL: namdcph) Proposal rejected.
TCL: Running for 500 steps without repeating first step
TCL: namdcph) Proposal rejected.
TCL: Running for 500 steps without repeating first step
TCL: namdcph) Proposal rejected.
TCL: Running for 500 steps without repeating first step
TCL: namdcph) Proposal rejected.
TCL: Running for 500 steps without repeating first step
TCL: namdcph) Proposal rejected.
TCL: Running for 500 steps without repeating first step
ETITLE: TS BOND ANGLE DIHED IMPRP ELECT VDW BOUNDARY MISC KINETIC TOTAL TEMP POTENTIAL TOTAL3 TEMPAVG PRESSURE GPRESSURE VOLUME PRESSAVG GPRESSAVG
ENERGY: 115000 174.8230 520.4619 502.0694 29.6960 -1398.8544 -110.7715 0.0000 0.0000 657.8723 375.2966 308.1027 -282.5756 383.0951 296.0916 -142.8096 -140.7622 216000.0000 -2.1610 -2.1607
TCL: namdcph) Proposal rejected.
TCL: Running for 500 steps without repeating first step
TCL: namdcph) Proposal rejected.
TCL: Running for 500 steps without repeating first step
TCL: namdcph) Proposal rejected.
TCL: Running for 500 steps without repeating first step
TCL: namdcph) Proposal rejected.
TCL: Running for 500 steps without repeating first step
TCL: namdcph) Proposal rejected.
TCL: Running for 500 steps without repeating first step
TCL: namdcph) Proposal rejected.
TCL: Running for 500 steps without repeating first step
TCL: namdcph) Proposal rejected.
TCL: Running for 500 steps without repeating first step
TCL: namdcph) Proposal rejected.
TCL: Running for 500 steps without repeating first step
TCL: namdcph) Proposal rejected.
TCL: Running for 500 steps without repeating first step
TCL: namdcph) Proposal rejected.
TCL: Running for 500 steps without repeating first step
ETITLE: TS BOND ANGLE DIHED IMPRP ELECT VDW BOUNDARY MISC KINETIC TOTAL TEMP POTENTIAL TOTAL3 TEMPAVG PRESSURE GPRESSURE VOLUME PRESSAVG GPRESSAVG
ENERGY: 120000 149.1427 522.4651 518.9970 43.6404 -1390.3090 -101.9032 0.0000 0.0000 651.1614 393.1944 304.9598 -257.9670 401.8152 297.3483 -40.1631 -38.8082 216000.0000 2.8182 2.8328
TCL: namdcph) Proposal rejected.
TCL: Running for 500 steps without repeating first step
TCL: namdcph) Proposal rejected.
TCL: Running for 500 steps without repeating first step
TCL: namdcph) Proposal rejected.
TCL: Running for 500 steps without repeating first step
TCL: namdcph) Proposal rejected.
TCL: Running for 500 steps without repeating first step
TCL: namdcph) Proposal rejected.
TCL: Running for 500 steps without repeating first step
TCL: namdcph) Proposal rejected.
TCL: Running for 500 steps without repeating first step
TCL: namdcph) Proposal rejected.
TCL: Running for 500 steps without repeating first step
TCL: namdcph) Proposal rejected.
TCL: Running for 500 steps without repeating first step
TCL: namdcph) Proposal rejected.
TCL: Running for 500 steps without repeating first step
TCL: namdcph) Proposal rejected.
TCL: Running for 500 steps without repeating first step
ETITLE: TS BOND ANGLE DIHED IMPRP ELECT VDW BOUNDARY MISC KINETIC TOTAL TEMP POTENTIAL TOTAL3 TEMPAVG PRESSURE GPRESSURE VOLUME PRESSAVG GPRESSAVG
ENERGY: 125000 166.8447 520.7739 508.5139 49.7149 -1390.2031 -105.4672 0.0000 0.0000 643.2724 393.4494 301.2651 -249.8229 402.4473 294.2714 20.2979 22.4458 216000.0000 6.2923 6.2945
TCL: namdcph) Proposal rejected.
TCL: Running for 500 steps without repeating first step
TCL: namdcph) Proposal rejected.
TCL: Running for 500 steps without repeating first step
TCL: namdcph) Proposal rejected.
TCL: Running for 500 steps without repeating first step
TCL: namdcph) Proposal rejected.
TCL: Running for 500 steps without repeating first step
TCL: namdcph) Proposal rejected.
TCL: Running for 500 steps without repeating first step
TCL: namdcph) Proposal rejected.
TCL: Running for 500 steps without repeating first step
TCL: namdcph) Proposal rejected.
TCL: Running for 500 steps without repeating first step
TCL: namdcph) Proposal rejected.
TCL: Running for 500 steps without repeating first step
TCL: namdcph) Proposal rejected.
TCL: Running for 500 steps without repeating first step
TCL: namdcph) Proposal rejected.
TCL: Running for 500 steps without repeating first step
ETITLE: TS BOND ANGLE DIHED IMPRP ELECT VDW BOUNDARY MISC KINETIC TOTAL TEMP POTENTIAL TOTAL3 TEMPAVG PRESSURE GPRESSURE VOLUME PRESSAVG GPRESSAVG
ENERGY: 130000 153.7298 510.3224 504.5150 32.7143 -1385.6827 -90.9829 0.0000 0.0000 631.0196 355.6354 295.5267 -275.3842 364.6523 299.8033 113.4829 114.1933 216000.0000 1.3502 1.3508
TCL: namdcph) Proposal rejected.
TCL: Running for 500 steps without repeating first step
TCL: namdcph) Proposal rejected.
TCL: Running for 500 steps without repeating first step
TCL: namdcph) Proposal rejected.
TCL: Running for 500 steps without repeating first step
TCL: namdcph) Proposal rejected.
TCL: Running for 500 steps without repeating first step
TCL: namdcph) Proposal rejected.
TCL: Running for 500 steps without repeating first step
TCL: namdcph) Proposal rejected.
TCL: Running for 500 steps without repeating first step
TCL: namdcph) Proposal rejected.
TCL: Running for 500 steps without repeating first step
TCL: namdcph) Proposal rejected.
TCL: Running for 500 steps without repeating first step
TCL: namdcph) Proposal rejected.
TCL: Running for 500 steps without repeating first step
TCL: namdcph) Proposal rejected.
TCL: Running for 500 steps without repeating first step
ETITLE: TS BOND ANGLE DIHED IMPRP ELECT VDW BOUNDARY MISC KINETIC TOTAL TEMP POTENTIAL TOTAL3 TEMPAVG PRESSURE GPRESSURE VOLUME PRESSAVG GPRESSAVG
ENERGY: 135000 156.1660 517.5476 506.0275 29.3259 -1370.5207 -98.3821 0.0000 0.0000 665.4714 405.6355 311.6616 -259.8359 414.5688 294.0779 59.2568 61.0501 216000.0000 5.4993 5.4898
TCL: namdcph) Proposal rejected.
TCL: Running for 500 steps without repeating first step
TCL: namdcph) Proposal rejected.
TCL: Running for 500 steps without repeating first step
TCL: namdcph) Proposal rejected.
TCL: Running for 500 steps without repeating first step
TCL: namdcph) Proposal rejected.
TCL: Running for 500 steps without repeating first step
TCL: namdcph) Proposal rejected.
TCL: Running for 500 steps without repeating first step
TCL: namdcph) Proposal rejected.
TCL: Running for 500 steps without repeating first step
TCL: namdcph) Proposal rejected.
TCL: Running for 500 steps without repeating first step
TCL: namdcph) Proposal rejected.
TCL: Running for 500 steps without repeating first step
TCL: namdcph) Proposal rejected.
TCL: Running for 500 steps without repeating first step
TCL: namdcph) Proposal rejected.
TCL: Running for 500 steps without repeating first step
ETITLE: TS BOND ANGLE DIHED IMPRP ELECT VDW BOUNDARY MISC KINETIC TOTAL TEMP POTENTIAL TOTAL3 TEMPAVG PRESSURE GPRESSURE VOLUME PRESSAVG GPRESSAVG
ENERGY: 140000 175.6230 536.1872 515.1393 28.7689 -1374.8196 -110.4092 0.0000 0.0000 580.2664 350.7559 271.7574 -229.5105 356.6763 295.6610 -136.8996 -137.0118 216000.0000 -0.1016 -0.0989
TCL: namdcph) Proposal rejected.
TCL: Running for 500 steps without repeating first step
TCL: namdcph) Proposal rejected.
TCL: Running for 500 steps without repeating first step
TCL: namdcph) Proposal rejected.
TCL: Running for 500 steps without repeating first step
TCL: namdcph) Proposal rejected.
TCL: Running for 500 steps without repeating first step
TCL: namdcph) Proposal rejected.
TCL: Running for 500 steps without repeating first step
TCL: namdcph) Proposal rejected.
TCL: Running for 500 steps without repeating first step
TCL: namdcph) Proposal rejected.
TCL: Running for 500 steps without repeating first step
TCL: namdcph) Proposal rejected.
TCL: Running for 500 steps without repeating first step
TCL: namdcph) Proposal rejected.
TCL: Running for 500 steps without repeating first step
TCL: namdcph) Proposal rejected.
TCL: Running for 500 steps without repeating first step
ETITLE: TS BOND ANGLE DIHED IMPRP ELECT VDW BOUNDARY MISC KINETIC TOTAL TEMP POTENTIAL TOTAL3 TEMPAVG PRESSURE GPRESSURE VOLUME PRESSAVG GPRESSAVG
ENERGY: 145000 148.0433 513.8265 503.2671 42.6668 -1379.1542 -88.8479 0.0000 0.0000 659.4720 399.2737 308.8520 -260.1983 408.6348 295.1253 106.6614 108.7301 216000.0000 1.4189 1.4172
TCL: namdcph) Proposal rejected.
TCL: Running for 500 steps without repeating first step
TCL: namdcph) Proposal rejected.
TCL: Running for 500 steps without repeating first step
TCL: namdcph) Proposal rejected.
TCL: Running for 500 steps without repeating first step
TCL: namdcph) Proposal rejected.
TCL: Running for 500 steps without repeating first step
TCL: namdcph) Proposal rejected.
TCL: Running for 500 steps without repeating first step
TCL: namdcph) Proposal rejected.
TCL: Running for 500 steps without repeating first step
TCL: namdcph) Proposal rejected.
TCL: Running for 500 steps without repeating first step
TCL: namdcph) Proposal rejected.
TCL: Running for 500 steps without repeating first step
TCL: namdcph) Proposal rejected.
TCL: Running for 500 steps without repeating first step
TCL: namdcph) Proposal rejected.
TCL: Running for 500 steps without repeating first step
ETITLE: TS BOND ANGLE DIHED IMPRP ELECT VDW BOUNDARY MISC KINETIC TOTAL TEMP POTENTIAL TOTAL3 TEMPAVG PRESSURE GPRESSURE VOLUME PRESSAVG GPRESSAVG
ENERGY: 150000 172.8051 545.3603 502.4362 34.6444 -1374.3397 -94.6289 0.0000 0.0000 667.0503 453.3276 312.4011 -213.7227 462.2459 299.2111 15.3634 16.2168 216000.0000 4.7135 4.6908
TCL: namdcph) Proposal rejected.
TCL: namdcph) *************************************************
TCL: namdcph) CONSTANT pH MD STATISTICS:
TCL: namdcph) move label                : attempts accept. rate
TCL: namdcph) PP1:918:GLU               :        0         0.00
TCL: namdcph) PP1:921:LYS               :        0         0.00
TCL: namdcph) PP1:933:LYS               :        0         0.00
TCL: namdcph) PP1:936:ASP               :        0         0.00
TCL: namdcph) PP1:947:LYS               :        0         0.00
TCL: namdcph) PP1:964:LYS               :        0         0.00
TCL: namdcph) *************************************************
TCL: Exiting due to exit command.
