Info: SIMULATION PARAMETERS:
Info: TIMESTEP               2
Info: NUMBER OF STEPS        0
Info: STEPS PER CYCLE        20
Info: PERIODIC CELL BASIS 1  60 0 0
Info: PERIODIC CELL BASIS 2  0 60 0
Info: PERIODIC CELL BASIS 3  0 0 60
Info: PERIODIC CELL CENTER   0 0 0
Info: WRAPPING WATERS AROUND PERIODIC BOUNDARIES ON OUTPUT.
Info: WRAPPING ALL CLUSTERS AROUND PERIODIC BOUNDARIES ON OUTPUT.
Info: FIRST LDB TIMESTEP     100
Info: LAST LDB TIMESTEP     -1
Info: HOM BACKGROUND SCALING 1
Info: PME BACKGROUND SCALING 1
Info: MIN ATOMS PER PATCH    40
Info: VELOCITY FILE          6.8/Pre68_0.vel
Info: CENTER OF MASS MOVING INITIALLY? NO
Info: DIELECTRIC             1
Info: EXCLUDE                SCALED ONE-FOUR
Info: 1-4 ELECTROSTATICS SCALED BY 1
Info: MODIFIED 1-4 VDW PARAMETERS WILL BE USED
Info: DCD FILENAME           6.8/Pre68_1.dcd
Info: DCD FREQUENCY          5000
Info: DCD FIRST STEP         5000
Info: DCD FILE WILL CONTAIN UNIT CELL DATA
Info: NO EXTENDED SYSTEM TRAJECTORY OUTPUT
Info: NO VELOCITY DCD OUTPUT
Info: NO FORCE DCD OUTPUT
Info: OUTPUT FILENAME        6.8/Pre68_1
Info: BINARY OUTPUT FILES WILL BE USED
Info: NO RESTART FILE
Info: SWITCHING ACTIVE
Info: VDW FORCE SWITCHING ACTIVE
Info: SWITCHING ON           10
Info: SWITCHING OFF          12
Info: PAIRLIST DISTANCE      14
Info: PAIRLIST SHRINK RATE   0.01
Info: PAIRLIST GROW RATE     0.01
Info: PAIRLIST TRIGGER       0.3
Info: PAIRLISTS PER CYCLE    2
Info: PAIRLISTS ENABLED
Info: MARGIN                 2
Info: HYDROGEN GROUP CUTOFF  2.5
Info: PATCH DIMENSION        18.5
Info: ENERGY OUTPUT STEPS    5000
Info: CROSSTERM ENERGY INCLUDED IN DIHEDRAL
Info: TIMING OUTPUT STEPS    50000
Info: THERMODYNAMIC INTEGRATION (TI) ON
Info: TI LAMBDA VALUE     0
Info: TI INTRA-ALCHEMICAL NON-BONDED INTERACTIONS WILL BE DECOUPLED
Info: TI INTRA-ALCHEMICAL BONDED INTERACTIONS WILL BE DECOUPLED
Info: TI VDW SHIFTING COEFFICIENT 0
Info: TI ELEC. ACTIVE FOR ANNIHILATED PARTICLES BETWEEN LAMBDA = 0 AND LAMBDA = 1
Info: TI ELEC. ACTIVE FOR EXNIHILATED PARTICLES BETWEEN LAMBDA = 0 AND LAMBDA = 1
Info: TI VDW ACTIVE FOR ANNIHILATED PARTICLES BETWEEN LAMBDA = 0 AND LAMBDA = 1
Info: TI VDW ACTIVE FOR EXNIHILATED PARTICLES BETWEEN LAMBDA = 0 AND LAMBDA = 1
Info: TI BOND ACTIVE FOR ANNIHILATED PARTICLES BETWEEN LAMBDA = 0 AND LAMBDA = 1
Info: TI BOND ACTIVE FOR EXNIHILATED PARTICLES BETWEEN LAMBDA = 0 AND LAMBDA = 1
Info: LANGEVIN DYNAMICS ACTIVE
Info: LANGEVIN TEMPERATURE   298
Info: LANGEVIN USING BBK INTEGRATOR
Info: LANGEVIN DAMPING COEFFICIENT IS 1 INVERSE PS
Info: LANGEVIN DYNAMICS NOT APPLIED TO HYDROGENS
Info: PARTICLE MESH EWALD (PME) ACTIVE
Info: PME TOLERANCE               1e-06
Info: PME EWALD COEFFICIENT       0.257952
Info: PME INTERPOLATION ORDER     4
Info: PME GRID DIMENSIONS         60 60 60
Info: PME MAXIMUM GRID SPACING    1
Info: FULL ELECTROSTATIC EVALUATION FREQUENCY      2
Info: USING VERLET I (r-RESPA) MTS SCHEME.
Info: C1 SPLITTING OF LONG RANGE ELECTROSTATICS
Info: PLACING ATOMS IN PATCHES BY HYDROGEN GROUPS
Info: RIGID BONDS TO HYDROGEN : ALL
Info:         ERROR TOLERANCE : 1e-08
Info:          MAX ITERATIONS : 100
Info: RIGID WATER USING SETTLE ALGORITHM
Info: RANDOM NUMBER SEED     1685315928
Info: USE HYDROGEN BONDS?    NO
Info: COORDINATE PDB         6.8/Pre68_0.pdb
Info: STRUCTURE FILE         6.8/Pre68_0.psf
Info: PARAMETER file: CHARMM format!
Info: PARAMETERS             ../../toppar/par_all36_carb.prm
Info: PARAMETERS             ../../toppar/par_all36_cgenff.prm
Info: PARAMETERS             ../../toppar/par_all36_lipid.prm
Info: PARAMETERS             ../../toppar/par_all36_na.prm
Info: PARAMETERS             ../../toppar/par_all36_prot.prm
Info: PARAMETERS             ../../toppar/par_all36_solvent.prm
Info: PARAMETERS             ../../toppar/par_cph36_prot.prm
Info: PARAMETERS             ../../toppar/toppar_all36_carb_glycopeptide.str
Info: PARAMETERS             ../../toppar/toppar_water_ions_namd.str
Info: USING ARITHMETIC MEAN TO COMBINE L-J SIGMA PARAMETERS
Info: BINARY COORDINATES     6.8/Pre68_0.coor
Info: SKIPPING rtf SECTION IN STREAM FILE
Info: SKIPPING rtf SECTION IN STREAM FILE
Info: SUMMARY OF PARAMETERS:
Info: 925 BONDS
Info: 2696 ANGLES
Info: 6608 DIHEDRAL
Info: 195 IMPROPER
Info: 6 CROSSTERM
Info: 366 VDW
Info: 6 VDW_PAIRS
Info: 0 NBTHOLE_PAIRS
Info: READING EXTRA BONDS FILE 6.8/namdcph.sw.extrabonds
Info: To read alchdata from file: coordinate pdb file (default)
Info: To read alchflag data from column: 5
Info: LONG-RANGE LJ: APPLYING ANALYTICAL CORRECTIONS TO ENERGY AND PRESSURE
Info: LONG-RANGE LJ: AVERAGE A0 AND B0 COEFFICIENTS 257940 AND 189.542
Info: LONG-RANGE LJ: AVERAGE A1 AND B1 COEFFICIENTS 257940 AND 189.542
Info: STRUCTURE SUMMARY:
Info: 863 ATOMS
Info: 864 BONDS
Info: 1559 ANGLES
Info: 2262 DIHEDRALS
Info: 177 IMPROPERS
Info: 54 CROSSTERMS
Info: 0 EXCLUSIONS
Info: 440 RIGID BONDS
Info: ALCH: 0 ATOMS TO DISAPPEAR IN FINAL STATE
Info: ALCH: 0 ATOMS TO APPEAR IN FINAL STATE
Info: 2149 DEGREES OF FREEDOM
Info: 423 HYDROGEN GROUPS
Info: 4 ATOMS IN LARGEST HYDROGEN GROUP
Info: 423 MIGRATION GROUPS
Info: 4 ATOMS IN LARGEST MIGRATION GROUP
Info: TOTAL MASS = 6022.82 amu
Info: TOTAL CHARGE = 2 e
Info: MASS DENSITY = 0.0463026 g/cm^3
Info: ATOM DENSITY = 0.00399537 atoms/A^3
Info: ADDED 4679 IMPLICIT EXCLUSIONS
Info: NONBONDED TABLE R-SQUARED SPACING: 0.0625
Info: NONBONDED TABLE SIZE: 769 POINTS
Info: REMOVING COM VELOCITY 0.189214 0.129512 0.133887
TCL: Setting parameter alchLambdaFreq to 1
Info: NONBONDED TABLE R-SQUARED SPACING: 0.0625
Info: NONBONDED TABLE SIZE: 769 POINTS
TCL: Setting parameter alch to off
Info: NONBONDED TABLE R-SQUARED SPACING: 0.0625
Info: NONBONDED TABLE SIZE: 769 POINTS
TCL: namdcph) initializing constant pH PSF...
TCL: cphpsfgen) creating new alchemical side chain for PP1:918:GLU
TCL: cphpsfgen) merging alchemical sidechains for PP1:918:GLU
TCL: cphpsfgen) creating new alchemical side chain for PP1:921:LYS
TCL: cphpsfgen) merging alchemical sidechains for PP1:921:LYS
TCL: cphpsfgen) creating new alchemical side chain for PP1:933:LYS
TCL: cphpsfgen) merging alchemical sidechains for PP1:933:LYS
TCL: cphpsfgen) creating new alchemical side chain for PP1:936:ASP
TCL: cphpsfgen) merging alchemical sidechains for PP1:936:ASP
TCL: cphpsfgen) creating new alchemical side chain for PP1:947:LYS
TCL: cphpsfgen) merging alchemical sidechains for PP1:947:LYS
TCL: cphpsfgen) creating new alchemical side chain for PP1:964:LYS
TCL: cphpsfgen) merging alchemical sidechains for PP1:964:LYS
TCL: namdcph) ***************************************
TCL: namdcph) CONSTANT pH MD ACTIVE
TCL: namdcph) RESTART FILENAME 6.8/Pre68_0.cphrst
TCL: namdcph) SYSTEM pH 6.8
TCL: namdcph) CONSTANT pH CONFIGURATION FILE(S)
TCL: namdcph) ../../toppar/conf_cph36_prot.json
TCL: namdcph) NONEQUILIBRIUM SWITCH PARAMETERS:
TCL: namdcph) ALCHEMICAL FORCE CONSTANT 100.0 kcal/mol-A^2
TCL: namdcph) neMD/MC CRITERION TEMPERATURE 298.0
TCL: namdcph) TEMPORARY FILE INFORMATION:
TCL: namdcph) cpH TOPOLOGY FILE BASENAME 6.8/namdcph.md
TCL: namdcph) neMD/MC TRAJECTORY BASENAME 6.8/namdcph.sw
TCL: namdcph) ***************************************
TCL: namdcph) ***************************************
TCL: namdcph) TITRATABLE RESIDUE DEFINITIONS:
TCL: namdcph) HIS ASP GLU CYS LYS
TCL: namdcph) TITRATABLE SYSTEM SUMMARY:
TCL: namdcph) 6 RESIDUE(S)
TCL: namdcph) 16 PROTONATION SITE(S)
TCL: namdcph) ***************************************
TCL: namdcph) segid:resid:resname : state : pKai
TCL: namdcph) PP1:918:GLU         :     D : 4.68
TCL: namdcph) PP1:921:LYS         :     P : 10.47
TCL: namdcph) PP1:933:LYS         :     P : 10.42
TCL: namdcph) PP1:936:ASP         :     D : 3.83
TCL: namdcph) PP1:947:LYS         :     P : 10.47
TCL: namdcph) PP1:964:LYS         :     P : 10.40
TCL: namdcph) ***************************************
TCL: namdcph) *************************************************
TCL: namdcph) CONSTANT pH neMD/MC MOVES:
TCL: namdcph) MAX. ATTEMPTS PER CYCLE: 1
TCL: namdcph) ONE RESIDUE MOVES
TCL: namdcph) move label     : numsteps   weight
TCL: namdcph) PP1:918:GLU    :    75000     1.00
TCL: namdcph) PP1:921:LYS    :    75000     1.00
TCL: namdcph) PP1:933:LYS    :    75000     1.00
TCL: namdcph) PP1:936:ASP    :    75000     1.00
TCL: namdcph) PP1:947:LYS    :    75000     1.00
TCL: namdcph) PP1:964:LYS    :    75000     1.00
TCL: namdcph) *************************************************
TCL: namdcph) clearing extraBondsFile 6.8/namdcph.sw.extrabonds
TCL: Reloading molecular structure from file 6.8/namdcph.md.psf and pdb file 6.8/namdcph.md.pdb
Info: READING EXTRA BONDS FILE 6.8/namdcph.sw.extrabonds
Info: LONG-RANGE LJ: APPLYING ANALYTICAL CORRECTIONS TO ENERGY AND PRESSURE
Info: LONG-RANGE LJ: AVERAGE A AND B COEFFICIENTS 257940 AND 189.542
Info: STRUCTURE SUMMARY:
Info: 863 ATOMS
Info: 864 BONDS
Info: 1559 ANGLES
Info: 2262 DIHEDRALS
Info: 177 IMPROPERS
Info: 54 CROSSTERMS
Info: 0 EXCLUSIONS
Info: 440 RIGID BONDS
Info: 2149 DEGREES OF FREEDOM
Info: 423 HYDROGEN GROUPS
Info: 4 ATOMS IN LARGEST HYDROGEN GROUP
Info: 423 MIGRATION GROUPS
Info: 4 ATOMS IN LARGEST MIGRATION GROUP
Info: TOTAL MASS = 6022.82 amu
Info: TOTAL CHARGE = 2 e
Info: MASS DENSITY = 0.0463026 g/cm^3
Info: ATOM DENSITY = 0.00399537 atoms/A^3
Info: ADDED 4679 IMPLICIT EXCLUSIONS
Info: NONBONDED TABLE R-SQUARED SPACING: 0.0625
Info: NONBONDED TABLE SIZE: 769 POINTS
TCL: Reinitializing atom data from files with basename 6.8/namdcph.md
Info: REMOVING COM VELOCITY 0.189214 0.129511 0.133887
TCL: Minimizing for 100 steps
ETITLE: TS BOND ANGLE DIHED IMPRP ELECT VDW BOUNDARY MISC KINETIC TOTAL TEMP POTENTIAL TOTAL3 TEMPAVG PRESSURE GPRESSURE VOLUME PRESSAVG GPRESSAVG
ENERGY: 0 176.6371 511.2093 518.1231 31.0640 -1337.6943 -94.7934 0.0000 0.0000 0.0000 -195.4541 0.0000 -195.4541 -195.4541 0.0000 -38.6927 -120.1873 216000.0000 -38.6927 -120.1873
ENERGY: 20 49.5733 217.9945 481.6367 11.3115 -1349.2159 -138.6127 0.0000 0.0000 0.0000 -727.3126 0.0000 -727.3126 -727.3126 0.0000 2.0324 -30.0268 216000.0000 2.0324 -30.0268
ENERGY: 40 41.7528 200.5085 472.4133 10.3532 -1352.0947 -146.0217 0.0000 0.0000 0.0000 -773.0885 0.0000 -773.0885 -773.0885 0.0000 27.3346 -18.8731 216000.0000 27.3346 -18.8731
ENERGY: 60 40.3937 185.3671 461.5525 9.9894 -1356.8011 -146.6659 0.0000 0.0000 0.0000 -806.1643 0.0000 -806.1643 -806.1643 0.0000 26.4936 -12.3567 216000.0000 26.4936 -12.3567
ENERGY: 80 39.6449 181.6902 456.2836 9.0208 -1357.5197 -149.8417 0.0000 0.0000 0.0000 -820.7219 0.0000 -820.7219 -820.7219 0.0000 18.7649 -21.3661 216000.0000 18.7649 -21.3661
ENERGY: 100 39.9094 179.9761 450.5598 8.5199 -1359.8164 -151.8994 0.0000 0.0000 0.0000 -832.7506 0.0000 -832.7506 -832.7506 0.0000 20.4678 -22.9527 216000.0000 20.4678 -22.9527
TCL: Setting parameter firstTimeStep to 0
TCL: Running for 1000 steps
ETITLE: TS BOND ANGLE DIHED IMPRP ELECT VDW BOUNDARY MISC KINETIC TOTAL TEMP POTENTIAL TOTAL3 TEMPAVG PRESSURE GPRESSURE VOLUME PRESSAVG GPRESSAVG
ENERGY: 0 39.9094 179.9761 450.5598 8.5199 -1359.8164 -151.8994 0.0000 0.0000 628.6310 -204.1196 294.4081 -832.7506 -204.5171 294.4081 43.1523 44.7063 216000.0000 43.1523 44.7063
TCL: namdcph) Proposal rejected.
TCL: Running for 1000 steps without repeating first step
TCL: namdcph) Proposal rejected.
TCL: Running for 1000 steps without repeating first step
TCL: namdcph) Proposal rejected.
TCL: Running for 1000 steps without repeating first step
TCL: namdcph) Proposal rejected.
TCL: Running for 1000 steps without repeating first step
ETITLE: TS BOND ANGLE DIHED IMPRP ELECT VDW BOUNDARY MISC KINETIC TOTAL TEMP POTENTIAL TOTAL3 TEMPAVG PRESSURE GPRESSURE VOLUME PRESSAVG GPRESSAVG
ENERGY: 5000 171.1427 502.6948 520.0283 40.2415 -1339.0081 -109.7961 0.0000 0.0000 623.5137 408.8168 292.0115 -214.6969 415.4134 271.5773 -11.8931 -11.1256 216000.0000 -7.6896 -7.6816
TCL: namdcph) Proposal rejected.
TCL: Running for 1000 steps without repeating first step
TCL: namdcph) Proposal rejected.
TCL: Running for 1000 steps without repeating first step
TCL: namdcph) Proposal rejected.
TCL: Running for 1000 steps without repeating first step
TCL: namdcph) Proposal rejected.
TCL: Running for 1000 steps without repeating first step
TCL: namdcph) Proposal rejected.
TCL: Running for 1000 steps without repeating first step
ETITLE: TS BOND ANGLE DIHED IMPRP ELECT VDW BOUNDARY MISC KINETIC TOTAL TEMP POTENTIAL TOTAL3 TEMPAVG PRESSURE GPRESSURE VOLUME PRESSAVG GPRESSAVG
ENERGY: 10000 157.1486 550.7978 516.4191 36.2694 -1368.8579 -115.6152 0.0000 0.0000 625.8138 401.9757 293.0887 -223.8382 409.0373 296.5742 3.8860 1.6109 216000.0000 -2.3376 -2.3310
TCL: namdcph) Proposal rejected.
TCL: Running for 1000 steps without repeating first step
TCL: namdcph) Proposal rejected.
TCL: Running for 1000 steps without repeating first step
TCL: namdcph) Proposal rejected.
TCL: Running for 1000 steps without repeating first step
TCL: namdcph) Proposal rejected.
TCL: Running for 1000 steps without repeating first step
TCL: namdcph) Proposal rejected.
TCL: Running for 1000 steps without repeating first step
ETITLE: TS BOND ANGLE DIHED IMPRP ELECT VDW BOUNDARY MISC KINETIC TOTAL TEMP POTENTIAL TOTAL3 TEMPAVG PRESSURE GPRESSURE VOLUME PRESSAVG GPRESSAVG
ENERGY: 15000 170.2220 516.0700 501.1297 31.2634 -1329.0458 -130.1857 0.0000 0.0000 601.8880 361.3416 281.8835 -240.5464 368.3422 291.4555 -86.3784 -86.9878 216000.0000 -7.7395 -7.7289
TCL: namdcph) Proposal rejected.
TCL: Running for 1000 steps without repeating first step
TCL: namdcph) Proposal rejected.
TCL: Running for 1000 steps without repeating first step
TCL: namdcph) Proposal rejected.
TCL: Running for 1000 steps without repeating first step
TCL: namdcph) Proposal rejected.
TCL: Running for 1000 steps without repeating first step
TCL: namdcph) Proposal rejected.
TCL: Running for 1000 steps without repeating first step
ETITLE: TS BOND ANGLE DIHED IMPRP ELECT VDW BOUNDARY MISC KINETIC TOTAL TEMP POTENTIAL TOTAL3 TEMPAVG PRESSURE GPRESSURE VOLUME PRESSAVG GPRESSAVG
ENERGY: 20000 161.9217 509.3663 505.5973 36.4363 -1321.9431 -108.5222 0.0000 0.0000 623.1269 405.9832 291.8303 -217.1437 414.0898 291.4969 -30.6801 -29.4409 216000.0000 -20.0992 -20.1046
TCL: namdcph) Proposal rejected.
TCL: Running for 1000 steps without repeating first step
TCL: namdcph) Proposal rejected.
TCL: Running for 1000 steps without repeating first step
TCL: namdcph) Proposal rejected.
TCL: Running for 1000 steps without repeating first step
TCL: namdcph) Proposal rejected.
TCL: Running for 1000 steps without repeating first step
TCL: namdcph) Proposal rejected.
TCL: Running for 1000 steps without repeating first step
ETITLE: TS BOND ANGLE DIHED IMPRP ELECT VDW BOUNDARY MISC KINETIC TOTAL TEMP POTENTIAL TOTAL3 TEMPAVG PRESSURE GPRESSURE VOLUME PRESSAVG GPRESSAVG
ENERGY: 25000 173.8260 513.7753 511.5860 36.6872 -1353.3902 -118.7473 0.0000 0.0000 641.8367 405.5737 300.5928 -236.2631 414.7292 292.3744 -102.4861 -100.6758 216000.0000 -16.9816 -16.9785
TCL: namdcph) Proposal rejected.
TCL: Running for 1000 steps without repeating first step
TCL: namdcph) Proposal rejected.
TCL: Running for 1000 steps without repeating first step
TCL: namdcph) Proposal rejected.
TCL: Running for 1000 steps without repeating first step
TCL: namdcph) Proposal rejected.
TCL: Running for 1000 steps without repeating first step
TCL: namdcph) Proposal rejected.
TCL: Running for 1000 steps without repeating first step
ETITLE: TS BOND ANGLE DIHED IMPRP ELECT VDW BOUNDARY MISC KINETIC TOTAL TEMP POTENTIAL TOTAL3 TEMPAVG PRESSURE GPRESSURE VOLUME PRESSAVG GPRESSAVG
ENERGY: 30000 160.7641 530.4763 508.7688 31.8335 -1338.1040 -109.3007 0.0000 0.0000 639.7016 424.1396 299.5928 -215.5620 431.2601 299.4478 -69.6084 -68.6215 216000.0000 -14.9364 -14.9357
TCL: namdcph) Proposal rejected.
TCL: Running for 1000 steps without repeating first step
TCL: namdcph) Proposal rejected.
TCL: Running for 1000 steps without repeating first step
TCL: namdcph) Proposal rejected.
TCL: Running for 1000 steps without repeating first step
TCL: namdcph) Proposal rejected.
TCL: Running for 1000 steps without repeating first step
TCL: namdcph) Proposal rejected.
TCL: Running for 1000 steps without repeating first step
ETITLE: TS BOND ANGLE DIHED IMPRP ELECT VDW BOUNDARY MISC KINETIC TOTAL TEMP POTENTIAL TOTAL3 TEMPAVG PRESSURE GPRESSURE VOLUME PRESSAVG GPRESSAVG
ENERGY: 35000 158.4075 533.2229 504.4010 42.4284 -1339.5142 -121.6103 0.0000 0.0000 598.5119 375.8472 280.3024 -222.6647 380.7585 300.4217 -54.5482 -54.0391 216000.0000 -13.2473 -13.2358
TCL: namdcph) Proposal rejected.
TCL: Running for 1000 steps without repeating first step
TCL: namdcph) Proposal rejected.
TCL: Running for 1000 steps without repeating first step
TCL: namdcph) Proposal rejected.
TCL: Running for 1000 steps without repeating first step
TCL: namdcph) Proposal rejected.
TCL: Running for 1000 steps without repeating first step
TCL: namdcph) Proposal rejected.
TCL: Running for 1000 steps without repeating first step
ETITLE: TS BOND ANGLE DIHED IMPRP ELECT VDW BOUNDARY MISC KINETIC TOTAL TEMP POTENTIAL TOTAL3 TEMPAVG PRESSURE GPRESSURE VOLUME PRESSAVG GPRESSAVG
ENERGY: 40000 168.6499 547.9686 509.6002 33.2512 -1342.3958 -115.7548 0.0000 0.0000 636.4382 437.7576 298.0645 -198.6807 443.7399 297.9278 -55.2190 -55.0199 216000.0000 -12.6649 -12.6673
TCL: namdcph) Proposal rejected.
TCL: Running for 1000 steps without repeating first step
TCL: namdcph) Proposal rejected.
TCL: Running for 1000 steps without repeating first step
TCL: namdcph) Proposal rejected.
TCL: Running for 1000 steps without repeating first step
TCL: namdcph) Proposal rejected.
TCL: Running for 1000 steps without repeating first step
TCL: namdcph) Proposal rejected.
TCL: Running for 1000 steps without repeating first step
ETITLE: TS BOND ANGLE DIHED IMPRP ELECT VDW BOUNDARY MISC KINETIC TOTAL TEMP POTENTIAL TOTAL3 TEMPAVG PRESSURE GPRESSURE VOLUME PRESSAVG GPRESSAVG
ENERGY: 45000 153.1294 504.0746 495.2754 32.6547 -1338.8225 -109.6178 0.0000 0.0000 666.5016 403.1955 312.1441 -263.3061 411.8315 299.3054 178.9787 177.4712 216000.0000 -12.9746 -12.9803
TCL: namdcph) Proposal rejected.
TCL: Running for 1000 steps without repeating first step
TCL: namdcph) Proposal rejected.
TCL: Running for 1000 steps without repeating first step
TCL: namdcph) Proposal rejected.
TCL: Running for 1000 steps without repeating first step
TCL: namdcph) Proposal rejected.
TCL: Running for 1000 steps without repeating first step
TCL: namdcph) Proposal rejected.
TCL: Running for 1000 steps without repeating first step
ETITLE: TS BOND ANGLE DIHED IMPRP ELECT VDW BOUNDARY MISC KINETIC TOTAL TEMP POTENTIAL TOTAL3 TEMPAVG PRESSURE GPRESSURE VOLUME PRESSAVG GPRESSAVG
ENERGY: 50000 155.1176 498.1712 512.3943 44.2018 -1338.4516 -98.4970 0.0000 0.0000 617.7970 390.7332 289.3342 -227.0638 397.6850 298.8087 50.6432 50.6554 216000.0000 -8.3896 -8.3944
TCL: namdcph) Proposal rejected.
TCL: Running for 1000 steps without repeating first step
TCL: namdcph) Proposal rejected.
TCL: Running for 1000 steps without repeating first step
TCL: namdcph) Proposal rejected.
TCL: Running for 1000 steps without repeating first step
TCL: namdcph) Proposal rejected.
TCL: Running for 1000 steps without repeating first step
TCL: namdcph) Proposal rejected.
TCL: Running for 1000 steps without repeating first step
ETITLE: TS BOND ANGLE DIHED IMPRP ELECT VDW BOUNDARY MISC KINETIC TOTAL TEMP POTENTIAL TOTAL3 TEMPAVG PRESSURE GPRESSURE VOLUME PRESSAVG GPRESSAVG
ENERGY: 55000 147.1320 512.2790 499.2357 42.9094 -1343.3621 -100.4595 0.0000 0.0000 631.9259 389.6604 295.9512 -242.2655 398.1480 293.6467 117.7175 120.7406 216000.0000 -10.3305 -10.3253
TCL: namdcph) Proposal rejected.
TCL: Running for 1000 steps without repeating first step
TCL: namdcph) Proposal rejected.
TCL: Running for 1000 steps without repeating first step
TCL: namdcph) Proposal rejected.
TCL: Running for 1000 steps without repeating first step
TCL: namdcph) Proposal rejected.
TCL: Running for 1000 steps without repeating first step
TCL: namdcph) Proposal rejected.
TCL: Running for 1000 steps without repeating first step
ETITLE: TS BOND ANGLE DIHED IMPRP ELECT VDW BOUNDARY MISC KINETIC TOTAL TEMP POTENTIAL TOTAL3 TEMPAVG PRESSURE GPRESSURE VOLUME PRESSAVG GPRESSAVG
ENERGY: 60000 165.7827 516.6267 501.1917 36.9185 -1334.1530 -113.7678 0.0000 0.0000 653.8415 426.4402 306.2150 -227.4013 434.2757 298.5279 71.4377 69.4970 216000.0000 -15.2702 -15.2716
TCL: namdcph) Proposal rejected.
TCL: Running for 1000 steps without repeating first step
TCL: namdcph) Proposal rejected.
TCL: Running for 1000 steps without repeating first step
TCL: namdcph) Proposal rejected.
TCL: Running for 1000 steps without repeating first step
TCL: namdcph) Proposal rejected.
TCL: Running for 1000 steps without repeating first step
TCL: namdcph) Proposal rejected.
TCL: Running for 1000 steps without repeating first step
ETITLE: TS BOND ANGLE DIHED IMPRP ELECT VDW BOUNDARY MISC KINETIC TOTAL TEMP POTENTIAL TOTAL3 TEMPAVG PRESSURE GPRESSURE VOLUME PRESSAVG GPRESSAVG
ENERGY: 65000 178.9827 511.6664 495.1511 36.8772 -1338.2253 -122.2137 0.0000 0.0000 643.2967 405.5352 301.2765 -237.7615 410.7118 291.4699 -52.3304 -52.4425 216000.0000 -12.2474 -12.2442
TCL: namdcph) Proposal rejected.
TCL: Running for 1000 steps without repeating first step
TCL: namdcph) Proposal rejected.
TCL: Running for 1000 steps without repeating first step
TCL: namdcph) Proposal rejected.
TCL: Running for 1000 steps without repeating first step
TCL: namdcph) Proposal rejected.
TCL: Running for 1000 steps without repeating first step
TCL: namdcph) Proposal rejected.
TCL: Running for 1000 steps without repeating first step
ETITLE: TS BOND ANGLE DIHED IMPRP ELECT VDW BOUNDARY MISC KINETIC TOTAL TEMP POTENTIAL TOTAL3 TEMPAVG PRESSURE GPRESSURE VOLUME PRESSAVG GPRESSAVG
ENERGY: 70000 156.0759 503.8032 496.9159 35.4765 -1334.3711 -96.0981 0.0000 0.0000 634.3660 396.1682 297.0940 -238.1977 403.2524 296.8112 -50.4347 -50.0021 216000.0000 -14.1105 -14.1038
TCL: namdcph) Proposal rejected.
TCL: Running for 1000 steps without repeating first step
TCL: namdcph) Proposal rejected.
TCL: Running for 1000 steps without repeating first step
TCL: namdcph) Proposal rejected.
TCL: Running for 1000 steps without repeating first step
TCL: namdcph) Proposal rejected.
TCL: Running for 1000 steps without repeating first step
TCL: namdcph) Proposal rejected.
TCL: Running for 1000 steps without repeating first step
ETITLE: TS BOND ANGLE DIHED IMPRP ELECT VDW BOUNDARY MISC KINETIC TOTAL TEMP POTENTIAL TOTAL3 TEMPAVG PRESSURE GPRESSURE VOLUME PRESSAVG GPRESSAVG
ENERGY: 75000 152.2185 531.7740 506.2206 30.3769 -1351.0039 -112.2363 0.0000 0.0000 644.7730 402.1228 301.9679 -242.6502 409.1473 298.3423 45.5253 45.9905 216000.0000 -7.3677 -7.3740
TCL: namdcph) Proposal rejected.
TCL: Running for 1000 steps without repeating first step
TCL: namdcph) Proposal rejected.
TCL: Running for 1000 steps without repeating first step
TCL: namdcph) Proposal rejected.
TCL: Running for 1000 steps without repeating first step
TCL: namdcph) Proposal rejected.
TCL: Running for 1000 steps without repeating first step
TCL: namdcph) Proposal rejected.
TCL: Running for 1000 steps without repeating first step
ETITLE: TS BOND ANGLE DIHED IMPRP ELECT VDW BOUNDARY MISC KINETIC TOTAL TEMP POTENTIAL TOTAL3 TEMPAVG PRESSURE GPRESSURE VOLUME PRESSAVG GPRESSAVG
ENERGY: 80000 174.1035 533.7887 514.3887 41.0428 -1312.7128 -126.3818 0.0000 0.0000 681.1450 505.3740 319.0021 -175.7711 512.7836 300.5809 -3.3923 -4.7720 216000.0000 -16.8400 -16.8471
TCL: namdcph) Proposal rejected.
TCL: Running for 1000 steps without repeating first step
TCL: namdcph) Proposal rejected.
TCL: Running for 1000 steps without repeating first step
TCL: namdcph) Proposal rejected.
TCL: Running for 1000 steps without repeating first step
TCL: namdcph) Proposal rejected.
TCL: Running for 1000 steps without repeating first step
TCL: namdcph) Proposal rejected.
TCL: Running for 1000 steps without repeating first step
ETITLE: TS BOND ANGLE DIHED IMPRP ELECT VDW BOUNDARY MISC KINETIC TOTAL TEMP POTENTIAL TOTAL3 TEMPAVG PRESSURE GPRESSURE VOLUME PRESSAVG GPRESSAVG
ENERGY: 85000 161.5045 549.0311 502.2314 28.7436 -1318.8294 -115.9600 0.0000 0.0000 646.9459 453.6671 302.9856 -193.2788 459.8384 304.3488 -22.4939 -22.2403 216000.0000 -15.6032 -15.5915
TCL: namdcph) Proposal rejected.
TCL: Running for 1000 steps without repeating first step
TCL: namdcph) Proposal rejected.
TCL: Running for 1000 steps without repeating first step
TCL: namdcph) Proposal rejected.
TCL: Running for 1000 steps without repeating first step
TCL: namdcph) Proposal rejected.
TCL: Running for 1000 steps without repeating first step
TCL: namdcph) Proposal rejected.
TCL: Running for 1000 steps without repeating first step
ETITLE: TS BOND ANGLE DIHED IMPRP ELECT VDW BOUNDARY MISC KINETIC TOTAL TEMP POTENTIAL TOTAL3 TEMPAVG PRESSURE GPRESSURE VOLUME PRESSAVG GPRESSAVG
ENERGY: 90000 163.2452 503.8180 515.6242 33.2930 -1335.3323 -130.8621 0.0000 0.0000 622.9315 372.7174 291.7389 -250.2141 380.4177 293.5593 -58.5528 -57.3900 216000.0000 -19.6458 -19.6469
TCL: namdcph) Proposal rejected.
TCL: Running for 1000 steps without repeating first step
TCL: namdcph) Proposal rejected.
TCL: Running for 1000 steps without repeating first step
TCL: namdcph) Proposal rejected.
TCL: Running for 1000 steps without repeating first step
TCL: namdcph) Proposal rejected.
TCL: Running for 1000 steps without repeating first step
TCL: namdcph) Proposal rejected.
TCL: Running for 1000 steps without repeating first step
ETITLE: TS BOND ANGLE DIHED IMPRP ELECT VDW BOUNDARY MISC KINETIC TOTAL TEMP POTENTIAL TOTAL3 TEMPAVG PRESSURE GPRESSURE VOLUME PRESSAVG GPRESSAVG
ENERGY: 95000 175.8145 497.9774 509.3002 35.4805 -1347.5687 -125.7289 0.0000 0.0000 650.9903 396.2652 304.8797 -254.7251 404.5790 297.7468 -81.4103 -79.9882 216000.0000 -10.1554 -10.1724
TCL: namdcph) Proposal rejected.
TCL: Running for 1000 steps without repeating first step
TCL: namdcph) Proposal rejected.
TCL: Running for 1000 steps without repeating first step
TCL: namdcph) Proposal rejected.
TCL: Running for 1000 steps without repeating first step
TCL: namdcph) Proposal rejected.
TCL: Running for 1000 steps without repeating first step
TCL: namdcph) Proposal rejected.
TCL: Running for 1000 steps without repeating first step
ETITLE: TS BOND ANGLE DIHED IMPRP ELECT VDW BOUNDARY MISC KINETIC TOTAL TEMP POTENTIAL TOTAL3 TEMPAVG PRESSURE GPRESSURE VOLUME PRESSAVG GPRESSAVG
ENERGY: 100000 176.5886 520.1633 511.8114 33.0796 -1341.2092 -117.8653 0.0000 0.0000 638.5285 421.0969 299.0434 -217.4316 428.6295 298.7870 -68.1103 -68.0440 216000.0000 -14.8453 -14.8423
TCL: namdcph) Proposal rejected.
TCL: Running for 1000 steps without repeating first step
TCL: namdcph) Proposal rejected.
TCL: Running for 1000 steps without repeating first step
TCL: namdcph) Proposal rejected.
TCL: Running for 1000 steps without repeating first step
TCL: namdcph) Proposal rejected.
TCL: Running for 1000 steps without repeating first step
TCL: namdcph) Proposal rejected.
TCL: Running for 1000 steps without repeating first step
ETITLE: TS BOND ANGLE DIHED IMPRP ELECT VDW BOUNDARY MISC KINETIC TOTAL TEMP POTENTIAL TOTAL3 TEMPAVG PRESSURE GPRESSURE VOLUME PRESSAVG GPRESSAVG
ENERGY: 105000 166.3079 543.1845 497.9902 39.9265 -1337.2399 -122.3202 0.0000 0.0000 639.9829 427.8317 299.7246 -212.1511 433.8749 306.2043 -94.4717 -94.3369 216000.0000 -12.7603 -12.7633
TCL: namdcph) Proposal rejected.
TCL: Running for 1000 steps without repeating first step
TCL: namdcph) Proposal rejected.
TCL: Running for 1000 steps without repeating first step
TCL: namdcph) Proposal rejected.
TCL: Running for 1000 steps without repeating first step
TCL: namdcph) Proposal rejected.
TCL: Running for 1000 steps without repeating first step
TCL: namdcph) Proposal rejected.
TCL: Running for 1000 steps without repeating first step
ETITLE: TS BOND ANGLE DIHED IMPRP ELECT VDW BOUNDARY MISC KINETIC TOTAL TEMP POTENTIAL TOTAL3 TEMPAVG PRESSURE GPRESSURE VOLUME PRESSAVG GPRESSAVG
ENERGY: 110000 159.7388 490.1947 505.0791 42.0324 -1333.6694 -115.3508 0.0000 0.0000 630.8445 378.8694 295.4448 -251.9751 385.9227 297.5121 -82.3060 -82.8263 216000.0000 -11.0837 -11.0887
TCL: namdcph) Proposal rejected.
TCL: Running for 1000 steps without repeating first step
TCL: namdcph) Proposal rejected.
TCL: Running for 1000 steps without repeating first step
TCL: namdcph) Proposal rejected.
TCL: Running for 1000 steps without repeating first step
TCL: namdcph) Proposal rejected.
TCL: Running for 1000 steps without repeating first step
TCL: namdcph) Proposal rejected.
TCL: Running for 1000 steps without repeating first step
ETITLE: TS BOND ANGLE DIHED IMPRP ELECT VDW BOUNDARY MISC KINETIC TOTAL TEMP POTENTIAL TOTAL3 TEMPAVG PRESSURE GPRESSURE VOLUME PRESSAVG GPRESSAVG
ENERGY: 115000 164.4982 507.0088 495.2000 37.9916 -1322.1496 -125.3612 0.0000 0.0000 629.1594 386.3474 294.6556 -242.8120 393.8435 293.5726 -25.5474 -26.1289 216000.0000 -11.3530 -11.3576
TCL: namdcph) Proposal rejected.
TCL: Running for 1000 steps without repeating first step
TCL: namdcph) Proposal rejected.
TCL: Running for 1000 steps without repeating first step
TCL: namdcph) Proposal rejected.
TCL: Running for 1000 steps without repeating first step
TCL: namdcph) Proposal rejected.
TCL: Running for 1000 steps without repeating first step
TCL: namdcph) Proposal rejected.
TCL: Running for 1000 steps without repeating first step
ETITLE: TS BOND ANGLE DIHED IMPRP ELECT VDW BOUNDARY MISC KINETIC TOTAL TEMP POTENTIAL TOTAL3 TEMPAVG PRESSURE GPRESSURE VOLUME PRESSAVG GPRESSAVG
ENERGY: 120000 157.0228 485.6317 501.1116 38.1015 -1330.1387 -114.0638 0.0000 0.0000 600.5714 338.2365 281.2669 -262.3349 344.1572 295.2468 56.5920 54.9940 216000.0000 -20.6867 -20.6887
TCL: namdcph) Proposal rejected.
TCL: Running for 1000 steps without repeating first step
TCL: namdcph) Proposal rejected.
TCL: Running for 1000 steps without repeating first step
TCL: namdcph) Proposal rejected.
TCL: Running for 1000 steps without repeating first step
TCL: namdcph) Proposal rejected.
TCL: Running for 1000 steps without repeating first step
TCL: namdcph) Proposal rejected.
TCL: Running for 1000 steps without repeating first step
ETITLE: TS BOND ANGLE DIHED IMPRP ELECT VDW BOUNDARY MISC KINETIC TOTAL TEMP POTENTIAL TOTAL3 TEMPAVG PRESSURE GPRESSURE VOLUME PRESSAVG GPRESSAVG
ENERGY: 125000 161.5837 512.2282 490.9334 42.8231 -1354.2771 -109.3937 0.0000 0.0000 654.8486 398.7462 306.6867 -256.1024 406.8539 299.8001 103.8339 101.5820 216000.0000 -12.2373 -12.2188
TCL: namdcph) Proposal rejected.
TCL: Running for 1000 steps without repeating first step
TCL: namdcph) Proposal rejected.
TCL: Running for 1000 steps without repeating first step
TCL: namdcph) Proposal rejected.
TCL: Running for 1000 steps without repeating first step
TCL: namdcph) Proposal rejected.
TCL: Running for 1000 steps without repeating first step
TCL: namdcph) Proposal rejected.
TCL: Running for 1000 steps without repeating first step
ETITLE: TS BOND ANGLE DIHED IMPRP ELECT VDW BOUNDARY MISC KINETIC TOTAL TEMP POTENTIAL TOTAL3 TEMPAVG PRESSURE GPRESSURE VOLUME PRESSAVG GPRESSAVG
ENERGY: 130000 157.8068 520.6441 508.7761 44.0624 -1340.1230 -114.7189 0.0000 0.0000 622.3038 398.7514 291.4449 -223.5524 406.5780 298.0929 28.2022 31.6409 216000.0000 -16.8336 -16.8295
TCL: namdcph) Proposal rejected.
TCL: Running for 1000 steps without repeating first step
TCL: namdcph) Proposal rejected.
TCL: Running for 1000 steps without repeating first step
TCL: namdcph) Proposal rejected.
TCL: Running for 1000 steps without repeating first step
TCL: namdcph) Proposal rejected.
TCL: Running for 1000 steps without repeating first step
TCL: namdcph) Proposal rejected.
TCL: Running for 1000 steps without repeating first step
ETITLE: TS BOND ANGLE DIHED IMPRP ELECT VDW BOUNDARY MISC KINETIC TOTAL TEMP POTENTIAL TOTAL3 TEMPAVG PRESSURE GPRESSURE VOLUME PRESSAVG GPRESSAVG
ENERGY: 135000 161.1259 549.9404 495.6434 38.3226 -1339.5532 -136.0476 0.0000 0.0000 639.2730 408.7045 299.3921 -230.5684 416.3624 295.2428 -28.6175 -29.1078 216000.0000 -13.4846 -13.4737
TCL: namdcph) Proposal rejected.
TCL: Running for 1000 steps without repeating first step
TCL: namdcph) Proposal rejected.
TCL: Running for 1000 steps without repeating first step
TCL: namdcph) Proposal rejected.
TCL: Running for 1000 steps without repeating first step
TCL: namdcph) Proposal rejected.
TCL: Running for 1000 steps without repeating first step
TCL: namdcph) Proposal rejected.
TCL: Running for 1000 steps without repeating first step
ETITLE: TS BOND ANGLE DIHED IMPRP ELECT VDW BOUNDARY MISC KINETIC TOTAL TEMP POTENTIAL TOTAL3 TEMPAVG PRESSURE GPRESSURE VOLUME PRESSAVG GPRESSAVG
ENERGY: 140000 159.5134 508.7224 517.6358 37.3113 -1332.6436 -124.3471 0.0000 0.0000 625.7135 391.9057 293.0418 -233.8078 400.7697 299.0864 -47.8324 -46.9680 216000.0000 -5.9446 -5.9521
TCL: namdcph) Proposal rejected.
TCL: Running for 1000 steps without repeating first step
TCL: namdcph) Proposal rejected.
TCL: Running for 1000 steps without repeating first step
TCL: namdcph) Proposal rejected.
TCL: Running for 1000 steps without repeating first step
TCL: namdcph) Proposal rejected.
TCL: Running for 1000 steps without repeating first step
TCL: namdcph) Proposal rejected.
TCL: Running for 1000 steps without repeating first step
ETITLE: TS BOND ANGLE DIHED IMPRP ELECT VDW BOUNDARY MISC KINETIC TOTAL TEMP POTENTIAL TOTAL3 TEMPAVG PRESSURE GPRESSURE VOLUME PRESSAVG GPRESSAVG
ENERGY: 145000 159.8183 506.3542 506.2835 31.8521 -1349.0464 -95.1515 0.0000 0.0000 629.9960 390.1062 295.0474 -239.8898 396.7746 295.3189 41.9750 42.1827 216000.0000 -9.7956 -9.7921
TCL: namdcph) Proposal rejected.
TCL: Running for 1000 steps without repeating first step
TCL: namdcph) Proposal rejected.
TCL: Running for 1000 steps without repeating first step
TCL: namdcph) Proposal rejected.
TCL: Running for 1000 steps without repeating first step
TCL: namdcph) Proposal rejected.
TCL: Running for 1000 steps without repeating first step
TCL: namdcph) Proposal rejected.
TCL: Running for 1000 steps without repeating first step
ETITLE: TS BOND ANGLE DIHED IMPRP ELECT VDW BOUNDARY MISC KINETIC TOTAL TEMP POTENTIAL TOTAL3 TEMPAVG PRESSURE GPRESSURE VOLUME PRESSAVG GPRESSAVG
ENERGY: 150000 178.0947 488.6962 509.4922 31.9253 -1328.8215 -113.9337 0.0000 0.0000 623.0813 388.5345 291.8090 -234.5468 393.8670 297.7876 -141.2263 -138.8128 216000.0000 -8.0884 -8.0956
TCL: namdcph) Proposal rejected.
TCL: Running for 1000 steps without repeating first step
TCL: namdcph) Proposal rejected.
TCL: Running for 1000 steps without repeating first step
TCL: namdcph) Proposal rejected.
TCL: Running for 1000 steps without repeating first step
TCL: namdcph) Proposal rejected.
TCL: Running for 1000 steps without repeating first step
TCL: namdcph) Proposal rejected.
TCL: Running for 1000 steps without repeating first step
ETITLE: TS BOND ANGLE DIHED IMPRP ELECT VDW BOUNDARY MISC KINETIC TOTAL TEMP POTENTIAL TOTAL3 TEMPAVG PRESSURE GPRESSURE VOLUME PRESSAVG GPRESSAVG
ENERGY: 155000 158.9371 508.3147 504.4070 43.3780 -1354.7413 -119.8553 0.0000 0.0000 613.3526 353.7929 287.2528 -259.5598 360.9472 296.5518 16.5923 15.4782 216000.0000 -12.5516 -12.5537
TCL: namdcph) Proposal rejected.
TCL: Running for 1000 steps without repeating first step
TCL: namdcph) Proposal rejected.
TCL: Running for 1000 steps without repeating first step
TCL: namdcph) Proposal rejected.
TCL: Running for 1000 steps without repeating first step
TCL: namdcph) Proposal rejected.
TCL: Running for 1000 steps without repeating first step
TCL: namdcph) Proposal rejected.
TCL: Running for 1000 steps without repeating first step
ETITLE: TS BOND ANGLE DIHED IMPRP ELECT VDW BOUNDARY MISC KINETIC TOTAL TEMP POTENTIAL TOTAL3 TEMPAVG PRESSURE GPRESSURE VOLUME PRESSAVG GPRESSAVG
ENERGY: 160000 172.6396 493.1079 501.8381 37.8232 -1326.8890 -119.9768 0.0000 0.0000 636.3053 394.8483 298.0022 -241.4570 402.9308 294.5737 -43.0647 -44.0269 216000.0000 -20.7158 -20.7016
TCL: namdcph) Proposal rejected.
TCL: Running for 1000 steps without repeating first step
TCL: namdcph) Proposal rejected.
TCL: Running for 1000 steps without repeating first step
TCL: namdcph) Proposal rejected.
TCL: Running for 1000 steps without repeating first step
TCL: namdcph) Proposal rejected.
TCL: Running for 1000 steps without repeating first step
TCL: namdcph) Proposal rejected.
TCL: Running for 1000 steps without repeating first step
ETITLE: TS BOND ANGLE DIHED IMPRP ELECT VDW BOUNDARY MISC KINETIC TOTAL TEMP POTENTIAL TOTAL3 TEMPAVG PRESSURE GPRESSURE VOLUME PRESSAVG GPRESSAVG
ENERGY: 165000 158.1750 497.2589 505.6964 37.7283 -1345.3845 -96.2107 0.0000 0.0000 648.1274 405.3908 303.5389 -242.7365 415.7851 296.2589 -20.8677 -18.2450 216000.0000 -19.4694 -19.4686
TCL: namdcph) Proposal rejected.
TCL: Running for 1000 steps without repeating first step
TCL: namdcph) Proposal rejected.
TCL: Running for 1000 steps without repeating first step
TCL: namdcph) Proposal rejected.
TCL: Running for 1000 steps without repeating first step
TCL: namdcph) Proposal rejected.
TCL: Running for 1000 steps without repeating first step
TCL: namdcph) Proposal rejected.
TCL: Running for 1000 steps without repeating first step
ETITLE: TS BOND ANGLE DIHED IMPRP ELECT VDW BOUNDARY MISC KINETIC TOTAL TEMP POTENTIAL TOTAL3 TEMPAVG PRESSURE GPRESSURE VOLUME PRESSAVG GPRESSAVG
ENERGY: 170000 165.6005 491.1822 519.1730 36.3985 -1333.1873 -115.5279 0.0000 0.0000 600.9725 364.6115 281.4548 -236.3610 371.1619 292.8615 3.4080 3.9820 216000.0000 -18.6242 -18.6045
TCL: namdcph) Proposal rejected.
TCL: Running for 1000 steps without repeating first step
TCL: namdcph) Proposal rejected.
TCL: Running for 1000 steps without repeating first step
TCL: namdcph) Proposal rejected.
TCL: Running for 1000 steps without repeating first step
TCL: namdcph) Proposal rejected.
TCL: Running for 1000 steps without repeating first step
TCL: namdcph) Proposal rejected.
TCL: Running for 1000 steps without repeating first step
ETITLE: TS BOND ANGLE DIHED IMPRP ELECT VDW BOUNDARY MISC KINETIC TOTAL TEMP POTENTIAL TOTAL3 TEMPAVG PRESSURE GPRESSURE VOLUME PRESSAVG GPRESSAVG
ENERGY: 175000 166.2182 518.9109 494.7383 36.6030 -1364.4840 -99.1631 0.0000 0.0000 583.5966 336.4199 273.3171 -247.1767 341.1920 289.3172 52.1803 52.0473 216000.0000 -13.2270 -13.2097
TCL: namdcph) Proposal rejected.
TCL: Running for 1000 steps without repeating first step
TCL: namdcph) Proposal rejected.
TCL: Running for 1000 steps without repeating first step
TCL: namdcph) Proposal rejected.
TCL: Running for 1000 steps without repeating first step
TCL: namdcph) Proposal rejected.
TCL: Running for 1000 steps without repeating first step
TCL: namdcph) Proposal rejected.
TCL: Running for 1000 steps without repeating first step
ETITLE: TS BOND ANGLE DIHED IMPRP ELECT VDW BOUNDARY MISC KINETIC TOTAL TEMP POTENTIAL TOTAL3 TEMPAVG PRESSURE GPRESSURE VOLUME PRESSAVG GPRESSAVG
ENERGY: 180000 161.2793 500.1881 501.3525 31.9893 -1340.6505 -95.7229 0.0000 0.0000 604.0540 362.4899 282.8979 -241.5642 370.0177 289.2282 -37.4821 -36.0138 216000.0000 -13.0760 -13.0756
TCL: namdcph) Proposal rejected.
TCL: Running for 1000 steps without repeating first step
TCL: namdcph) Proposal rejected.
TCL: Running for 1000 steps without repeating first step
TCL: namdcph) Proposal rejected.
TCL: Running for 1000 steps without repeating first step
TCL: namdcph) Proposal rejected.
TCL: Running for 1000 steps without repeating first step
TCL: namdcph) Proposal rejected.
TCL: Running for 1000 steps without repeating first step
ETITLE: TS BOND ANGLE DIHED IMPRP ELECT VDW BOUNDARY MISC KINETIC TOTAL TEMP POTENTIAL TOTAL3 TEMPAVG PRESSURE GPRESSURE VOLUME PRESSAVG GPRESSAVG
ENERGY: 185000 167.4807 503.5254 518.6792 32.8221 -1350.7684 -117.2610 0.0000 0.0000 627.4209 381.8988 293.8414 -245.5220 388.4977 293.2305 -131.8248 -132.9582 216000.0000 -15.4772 -15.4681
TCL: namdcph) Proposal rejected.
TCL: Running for 1000 steps without repeating first step
TCL: namdcph) Proposal rejected.
TCL: Running for 1000 steps without repeating first step
TCL: namdcph) Proposal rejected.
TCL: Running for 1000 steps without repeating first step
TCL: namdcph) Proposal rejected.
TCL: Running for 1000 steps without repeating first step
TCL: namdcph) Proposal rejected.
TCL: Running for 1000 steps without repeating first step
ETITLE: TS BOND ANGLE DIHED IMPRP ELECT VDW BOUNDARY MISC KINETIC TOTAL TEMP POTENTIAL TOTAL3 TEMPAVG PRESSURE GPRESSURE VOLUME PRESSAVG GPRESSAVG
ENERGY: 190000 163.5081 547.2934 492.1533 33.8675 -1346.3312 -127.7049 0.0000 0.0000 669.2106 431.9966 313.4128 -237.2140 442.0001 298.6088 -57.8266 -57.6173 216000.0000 -8.1020 -8.1023
TCL: namdcph) Proposal rejected.
TCL: Running for 1000 steps without repeating first step
TCL: namdcph) Proposal rejected.
TCL: Running for 1000 steps without repeating first step
TCL: namdcph) Proposal rejected.
TCL: Running for 1000 steps without repeating first step
TCL: namdcph) Proposal rejected.
TCL: Running for 1000 steps without repeating first step
TCL: namdcph) Proposal rejected.
TCL: Running for 1000 steps without repeating first step
