Info: SIMULATION PARAMETERS:
Info: TIMESTEP               2
Info: NUMBER OF STEPS        0
Info: STEPS PER CYCLE        20
Info: PERIODIC CELL BASIS 1  60 0 0
Info: PERIODIC CELL BASIS 2  0 60 0
Info: PERIODIC CELL BASIS 3  0 0 60
Info: PERIODIC CELL CENTER   0 0 0
Info: WRAPPING WATERS AROUND PERIODIC BOUNDARIES ON OUTPUT.
Info: WRAPPING ALL CLUSTERS AROUND PERIODIC BOUNDARIES ON OUTPUT.
Info: FIRST LDB TIMESTEP     100
Info: LAST LDB TIMESTEP     -1
Info: HOM BACKGROUND SCALING 1
Info: PME BACKGROUND SCALING 1
Info: MIN ATOMS PER PATCH    40
Info: VELOCITY FILE          9/Pre9_0.vel
Info: CENTER OF MASS MOVING INITIALLY? NO
Info: DIELECTRIC             1
Info: EXCLUDE                SCALED ONE-FOUR
Info: 1-4 ELECTROSTATICS SCALED BY 1
Info: MODIFIED 1-4 VDW PARAMETERS WILL BE USED
Info: DCD FILENAME           9/Pre9_1.dcd
Info: DCD FREQUENCY          5000
Info: DCD FIRST STEP         5000
Info: DCD FILE WILL CONTAIN UNIT CELL DATA
Info: NO EXTENDED SYSTEM TRAJECTORY OUTPUT
Info: NO VELOCITY DCD OUTPUT
Info: NO FORCE DCD OUTPUT
Info: OUTPUT FILENAME        9/Pre9_1
Info: BINARY OUTPUT FILES WILL BE USED
Info: NO RESTART FILE
Info: SWITCHING ACTIVE
Info: VDW FORCE SWITCHING ACTIVE
Info: SWITCHING ON           10
Info: SWITCHING OFF          12
Info: PAIRLIST DISTANCE      14
Info: PAIRLIST SHRINK RATE   0.01
Info: PAIRLIST GROW RATE     0.01
Info: PAIRLIST TRIGGER       0.3
Info: PAIRLISTS PER CYCLE    2
Info: PAIRLISTS ENABLED
Info: MARGIN                 2
Info: HYDROGEN GROUP CUTOFF  2.5
Info: PATCH DIMENSION        18.5
Info: ENERGY OUTPUT STEPS    5000
Info: CROSSTERM ENERGY INCLUDED IN DIHEDRAL
Info: TIMING OUTPUT STEPS    50000
Info: THERMODYNAMIC INTEGRATION (TI) ON
Info: TI LAMBDA VALUE     0
Info: TI INTRA-ALCHEMICAL NON-BONDED INTERACTIONS WILL BE DECOUPLED
Info: TI INTRA-ALCHEMICAL BONDED INTERACTIONS WILL BE DECOUPLED
Info: TI VDW SHIFTING COEFFICIENT 0
Info: TI ELEC. ACTIVE FOR ANNIHILATED PARTICLES BETWEEN LAMBDA = 0 AND LAMBDA = 1
Info: TI ELEC. ACTIVE FOR EXNIHILATED PARTICLES BETWEEN LAMBDA = 0 AND LAMBDA = 1
Info: TI VDW ACTIVE FOR ANNIHILATED PARTICLES BETWEEN LAMBDA = 0 AND LAMBDA = 1
Info: TI VDW ACTIVE FOR EXNIHILATED PARTICLES BETWEEN LAMBDA = 0 AND LAMBDA = 1
Info: TI BOND ACTIVE FOR ANNIHILATED PARTICLES BETWEEN LAMBDA = 0 AND LAMBDA = 1
Info: TI BOND ACTIVE FOR EXNIHILATED PARTICLES BETWEEN LAMBDA = 0 AND LAMBDA = 1
Info: LANGEVIN DYNAMICS ACTIVE
Info: LANGEVIN TEMPERATURE   298
Info: LANGEVIN USING BBK INTEGRATOR
Info: LANGEVIN DAMPING COEFFICIENT IS 1 INVERSE PS
Info: LANGEVIN DYNAMICS NOT APPLIED TO HYDROGENS
Info: PARTICLE MESH EWALD (PME) ACTIVE
Info: PME TOLERANCE               1e-06
Info: PME EWALD COEFFICIENT       0.257952
Info: PME INTERPOLATION ORDER     4
Info: PME GRID DIMENSIONS         60 60 60
Info: PME MAXIMUM GRID SPACING    1
Info: FULL ELECTROSTATIC EVALUATION FREQUENCY      2
Info: USING VERLET I (r-RESPA) MTS SCHEME.
Info: C1 SPLITTING OF LONG RANGE ELECTROSTATICS
Info: PLACING ATOMS IN PATCHES BY HYDROGEN GROUPS
Info: RIGID BONDS TO HYDROGEN : ALL
Info:         ERROR TOLERANCE : 1e-08
Info:          MAX ITERATIONS : 100
Info: RIGID WATER USING SETTLE ALGORITHM
Info: RANDOM NUMBER SEED     1685295975
Info: USE HYDROGEN BONDS?    NO
Info: COORDINATE PDB         9/Pre9_0.pdb
Info: STRUCTURE FILE         9/Pre9_0.psf
Info: PARAMETER file: CHARMM format!
Info: PARAMETERS             ../../toppar/par_all36_carb.prm
Info: PARAMETERS             ../../toppar/par_all36_cgenff.prm
Info: PARAMETERS             ../../toppar/par_all36_lipid.prm
Info: PARAMETERS             ../../toppar/par_all36_na.prm
Info: PARAMETERS             ../../toppar/par_all36_prot.prm
Info: PARAMETERS             ../../toppar/par_all36_solvent.prm
Info: PARAMETERS             ../../toppar/par_cph36_prot.prm
Info: PARAMETERS             ../../toppar/toppar_all36_carb_glycopeptide.str
Info: PARAMETERS             ../../toppar/toppar_water_ions_namd.str
Info: USING ARITHMETIC MEAN TO COMBINE L-J SIGMA PARAMETERS
Info: BINARY COORDINATES     9/Pre9_0.coor
Info: SKIPPING rtf SECTION IN STREAM FILE
Info: SKIPPING rtf SECTION IN STREAM FILE
Info: SUMMARY OF PARAMETERS:
Info: 925 BONDS
Info: 2696 ANGLES
Info: 6608 DIHEDRAL
Info: 195 IMPROPER
Info: 6 CROSSTERM
Info: 366 VDW
Info: 6 VDW_PAIRS
Info: 0 NBTHOLE_PAIRS
Info: READING EXTRA BONDS FILE 9/namdcph.sw.extrabonds
Info: To read alchdata from file: coordinate pdb file (default)
Info: To read alchflag data from column: 5
Info: LONG-RANGE LJ: APPLYING ANALYTICAL CORRECTIONS TO ENERGY AND PRESSURE
Info: LONG-RANGE LJ: AVERAGE A0 AND B0 COEFFICIENTS 257940 AND 189.542
Info: LONG-RANGE LJ: AVERAGE A1 AND B1 COEFFICIENTS 257940 AND 189.542
Info: STRUCTURE SUMMARY:
Info: 863 ATOMS
Info: 864 BONDS
Info: 1559 ANGLES
Info: 2262 DIHEDRALS
Info: 177 IMPROPERS
Info: 54 CROSSTERMS
Info: 0 EXCLUSIONS
Info: 440 RIGID BONDS
Info: ALCH: 0 ATOMS TO DISAPPEAR IN FINAL STATE
Info: ALCH: 0 ATOMS TO APPEAR IN FINAL STATE
Info: 2149 DEGREES OF FREEDOM
Info: 423 HYDROGEN GROUPS
Info: 4 ATOMS IN LARGEST HYDROGEN GROUP
Info: 423 MIGRATION GROUPS
Info: 4 ATOMS IN LARGEST MIGRATION GROUP
Info: TOTAL MASS = 6022.82 amu
Info: TOTAL CHARGE = 2 e
Info: MASS DENSITY = 0.0463026 g/cm^3
Info: ATOM DENSITY = 0.00399537 atoms/A^3
Info: ADDED 4679 IMPLICIT EXCLUSIONS
Info: NONBONDED TABLE R-SQUARED SPACING: 0.0625
Info: NONBONDED TABLE SIZE: 769 POINTS
Info: REMOVING COM VELOCITY 0.189006 -0.0222715 -0.436106
TCL: Setting parameter alchLambdaFreq to 1
Info: NONBONDED TABLE R-SQUARED SPACING: 0.0625
Info: NONBONDED TABLE SIZE: 769 POINTS
TCL: Setting parameter alch to off
Info: NONBONDED TABLE R-SQUARED SPACING: 0.0625
Info: NONBONDED TABLE SIZE: 769 POINTS
TCL: namdcph) initializing constant pH PSF...
TCL: cphpsfgen) creating new alchemical side chain for PP1:918:GLU
TCL: cphpsfgen) merging alchemical sidechains for PP1:918:GLU
TCL: cphpsfgen) creating new alchemical side chain for PP1:921:LYS
TCL: cphpsfgen) merging alchemical sidechains for PP1:921:LYS
TCL: cphpsfgen) creating new alchemical side chain for PP1:933:LYS
TCL: cphpsfgen) merging alchemical sidechains for PP1:933:LYS
TCL: cphpsfgen) creating new alchemical side chain for PP1:936:ASP
TCL: cphpsfgen) merging alchemical sidechains for PP1:936:ASP
TCL: cphpsfgen) creating new alchemical side chain for PP1:947:LYS
TCL: cphpsfgen) merging alchemical sidechains for PP1:947:LYS
TCL: cphpsfgen) creating new alchemical side chain for PP1:964:LYS
TCL: cphpsfgen) merging alchemical sidechains for PP1:964:LYS
TCL: namdcph) ***************************************
TCL: namdcph) CONSTANT pH MD ACTIVE
TCL: namdcph) RESTART FILENAME 9/Pre9_0.cphrst
TCL: namdcph) SYSTEM pH 9
TCL: namdcph) CONSTANT pH CONFIGURATION FILE(S)
TCL: namdcph) ../../toppar/conf_cph36_prot.json
TCL: namdcph) NONEQUILIBRIUM SWITCH PARAMETERS:
TCL: namdcph) ALCHEMICAL FORCE CONSTANT 100.0 kcal/mol-A^2
TCL: namdcph) neMD/MC CRITERION TEMPERATURE 298.0
TCL: namdcph) TEMPORARY FILE INFORMATION:
TCL: namdcph) cpH TOPOLOGY FILE BASENAME 9/namdcph.md
TCL: namdcph) neMD/MC TRAJECTORY BASENAME 9/namdcph.sw
TCL: namdcph) ***************************************
TCL: namdcph) ***************************************
TCL: namdcph) TITRATABLE RESIDUE DEFINITIONS:
TCL: namdcph) HIS ASP GLU CYS LYS
TCL: namdcph) TITRATABLE SYSTEM SUMMARY:
TCL: namdcph) 6 RESIDUE(S)
TCL: namdcph) 16 PROTONATION SITE(S)
TCL: namdcph) ***************************************
TCL: namdcph) segid:resid:resname : state : pKai
TCL: namdcph) PP1:918:GLU         :     D : 4.68
TCL: namdcph) PP1:921:LYS         :     P : 10.47
TCL: namdcph) PP1:933:LYS         :     P : 10.42
TCL: namdcph) PP1:936:ASP         :     D : 3.83
TCL: namdcph) PP1:947:LYS         :     P : 10.47
TCL: namdcph) PP1:964:LYS         :     P : 10.40
TCL: namdcph) ***************************************
TCL: namdcph) *************************************************
TCL: namdcph) CONSTANT pH neMD/MC MOVES:
TCL: namdcph) MAX. ATTEMPTS PER CYCLE: 1
TCL: namdcph) ONE RESIDUE MOVES
TCL: namdcph) move label     : numsteps   weight
TCL: namdcph) PP1:918:GLU    :    75000     1.00
TCL: namdcph) PP1:921:LYS    :    75000     1.00
TCL: namdcph) PP1:933:LYS    :    75000     1.00
TCL: namdcph) PP1:936:ASP    :    75000     1.00
TCL: namdcph) PP1:947:LYS    :    75000     1.00
TCL: namdcph) PP1:964:LYS    :    75000     1.00
TCL: namdcph) *************************************************
TCL: namdcph) clearing extraBondsFile 9/namdcph.sw.extrabonds
TCL: Reloading molecular structure from file 9/namdcph.md.psf and pdb file 9/namdcph.md.pdb
Info: READING EXTRA BONDS FILE 9/namdcph.sw.extrabonds
Info: LONG-RANGE LJ: APPLYING ANALYTICAL CORRECTIONS TO ENERGY AND PRESSURE
Info: LONG-RANGE LJ: AVERAGE A AND B COEFFICIENTS 257940 AND 189.542
Info: STRUCTURE SUMMARY:
Info: 863 ATOMS
Info: 864 BONDS
Info: 1559 ANGLES
Info: 2262 DIHEDRALS
Info: 177 IMPROPERS
Info: 54 CROSSTERMS
Info: 0 EXCLUSIONS
Info: 440 RIGID BONDS
Info: 2149 DEGREES OF FREEDOM
Info: 423 HYDROGEN GROUPS
Info: 4 ATOMS IN LARGEST HYDROGEN GROUP
Info: 423 MIGRATION GROUPS
Info: 4 ATOMS IN LARGEST MIGRATION GROUP
Info: TOTAL MASS = 6022.82 amu
Info: TOTAL CHARGE = 2 e
Info: MASS DENSITY = 0.0463026 g/cm^3
Info: ATOM DENSITY = 0.00399537 atoms/A^3
Info: ADDED 4679 IMPLICIT EXCLUSIONS
Info: NONBONDED TABLE R-SQUARED SPACING: 0.0625
Info: NONBONDED TABLE SIZE: 769 POINTS
TCL: Reinitializing atom data from files with basename 9/namdcph.md
Info: REMOVING COM VELOCITY 0.189006 -0.0222715 -0.436106
TCL: Minimizing for 100 steps
ETITLE: TS BOND ANGLE DIHED IMPRP ELECT VDW BOUNDARY MISC KINETIC TOTAL TEMP POTENTIAL TOTAL3 TEMPAVG PRESSURE GPRESSURE VOLUME PRESSAVG GPRESSAVG
ENERGY: 0 176.6871 514.7861 504.9476 39.7184 -1319.3438 -95.0841 0.0000 0.0000 0.0000 -178.2888 0.0000 -178.2888 -178.2888 0.0000 30.2976 -51.1623 216000.0000 30.2976 -51.1623
ENERGY: 20 49.6595 218.5357 470.7368 14.8931 -1329.6554 -133.8520 0.0000 0.0000 0.0000 -709.6823 0.0000 -709.6823 -709.6823 0.0000 3.7751 -33.5864 216000.0000 3.7751 -33.5864
ENERGY: 40 44.1205 198.2200 463.3743 11.2909 -1331.0787 -140.2731 0.0000 0.0000 0.0000 -754.3462 0.0000 -754.3462 -754.3462 0.0000 1.3474 -35.3649 216000.0000 1.3474 -35.3649
ENERGY: 60 43.2367 190.3038 454.3523 10.1092 -1336.4590 -143.9897 0.0000 0.0000 0.0000 -782.4466 0.0000 -782.4466 -782.4466 0.0000 -7.4468 -40.9780 216000.0000 -7.4468 -40.9780
ENERGY: 80 43.8400 185.8335 443.0374 10.2252 -1344.3412 -146.6607 0.0000 0.0000 0.0000 -808.0658 0.0000 -808.0658 -808.0658 0.0000 -19.2093 -52.8960 216000.0000 -19.2093 -52.8960
ENERGY: 100 42.8094 181.2446 439.7977 9.9591 -1346.0673 -146.3765 0.0000 0.0000 0.0000 -818.6330 0.0000 -818.6330 -818.6330 0.0000 -9.7186 -46.8209 216000.0000 -9.7186 -46.8209
TCL: Setting parameter firstTimeStep to 0
TCL: Running for 1000 steps
ETITLE: TS BOND ANGLE DIHED IMPRP ELECT VDW BOUNDARY MISC KINETIC TOTAL TEMP POTENTIAL TOTAL3 TEMPAVG PRESSURE GPRESSURE VOLUME PRESSAVG GPRESSAVG
ENERGY: 0 42.8094 181.2446 439.7977 9.9591 -1346.0673 -146.3765 0.0000 0.0000 603.0775 -215.5555 282.4406 -818.6330 -215.8740 282.4406 15.0146 16.7906 216000.0000 15.0146 16.7906
TCL: namdcph) Proposal rejected.
TCL: Running for 1000 steps without repeating first step
TCL: namdcph) Proposal rejected.
TCL: Running for 1000 steps without repeating first step
TCL: namdcph) Proposal rejected.
TCL: Running for 1000 steps without repeating first step
TCL: namdcph) Proposal accepted, attemping a switch.
TCL: Setting parameter outputEnergies to 75000
TCL: Setting parameter dcdFreq to 0
TCL: Setting parameter firstTimestep to 0
TCL: Setting parameter alch to on
Info: NONBONDED TABLE R-SQUARED SPACING: 0.0625
Info: NONBONDED TABLE SIZE: 769 POINTS
TCL: Writing to files with basename 9/namdcph.md.
TCL: cphpsfgen) creating new alchemical side chain for PP1:933:LYS
TCL: Reloading molecular structure from file 9/namdcph.sw.psf and pdb file 9/namdcph.sw.pdb
Info: READING EXTRA BONDS FILE 9/namdcph.sw.extrabonds
Info: READ 7 EXTRA BONDS
Info: To read alchdata from file: coordinate pdb file (default)
Info: To read alchflag data from column: 5
Info: LONG-RANGE LJ: APPLYING ANALYTICAL CORRECTIONS TO ENERGY AND PRESSURE
Info: LONG-RANGE LJ: AVERAGE A0 AND B0 COEFFICIENTS 257940 AND 189.542
Info: LONG-RANGE LJ: AVERAGE A1 AND B1 COEFFICIENTS 258542 AND 189.969
Info: STRUCTURE SUMMARY:
Info: 870 ATOMS
Info: 878 BONDS
Info: 1573 ANGLES
Info: 2283 DIHEDRALS
Info: 178 IMPROPERS
Info: 54 CROSSTERMS
Info: 0 EXCLUSIONS
Info: 445 RIGID BONDS
Info: ALCH: 7 ATOMS TO DISAPPEAR IN FINAL STATE
Info: ALCH: 7 ATOMS TO APPEAR IN FINAL STATE
Info: ALCH: 1 ANGLES LINKING INITIAL AND FINAL ATOMS DELETED
Info: ALCH: 6 DIHEDRALS LINKING INITIAL AND FINAL ATOMS DELETED
Info: 2165 DEGREES OF FREEDOM
Info: 425 HYDROGEN GROUPS
Info: 4 ATOMS IN LARGEST HYDROGEN GROUP
Info: 425 MIGRATION GROUPS
Info: 4 ATOMS IN LARGEST MIGRATION GROUP
Info: TOTAL MASS = 6053.88 amu
Info: TOTAL CHARGE = 2 e
Info: MASS DENSITY = 0.0465414 g/cm^3
Info: ATOM DENSITY = 0.00402778 atoms/A^3
Info: ADDED 4722 IMPLICIT EXCLUSIONS
Info: NONBONDED TABLE R-SQUARED SPACING: 0.0625
Info: NONBONDED TABLE SIZE: 769 POINTS
TCL: Reinitializing atom data from files with basename 9/namdcph.sw
Info: REMOVING COM VELOCITY 0.212115 0.1578 0.0310088
TCL: Running for 75000 steps
ETITLE: TS BOND ANGLE DIHED IMPRP ELECT VDW BOUNDARY MISC KINETIC TOTAL TEMP POTENTIAL TOTAL3 TEMPAVG PRESSURE GPRESSURE VOLUME PRESSAVG GPRESSAVG
ENERGY: 0 171.7978 527.3905 499.2196 42.2468 -1300.0150 -132.8091 0.0000 0.0000 638.2596 446.0902 296.7084 -192.1694 453.6104 261.6333 -138.1212 -137.2797 216000.0000 -8.1337 -8.1267
ENERGY: 75000 174.2201 505.9677 492.7653 35.0803 -1227.8497 -94.5244 0.0000 0.0000 634.2197 519.8790 294.8304 -114.3407 528.5705 297.9709 5.4905 4.7258 216000.0000 -9.9940 -9.9958
TCL: Setting parameter outputEnergies to 5000
TCL: Setting parameter dcdFreq to 5000
TCL: namdcph) PP1:933:LYS:P:2 WorkCorr   -42.7273 CorrWork    64.0772
TCL: Setting parameter outputEnergies to 5000
TCL: Setting parameter dcdFreq to 5000
TCL: Setting parameter firstTimestep to 4000
TCL: namdcph) Switch rejected!
TCL: Setting parameter alch to off
Info: NONBONDED TABLE R-SQUARED SPACING: 0.0625
Info: NONBONDED TABLE SIZE: 769 POINTS
TCL: namdcph) clearing extraBondsFile 9/namdcph.sw.extrabonds
TCL: Reloading molecular structure from file 9/namdcph.md.psf and pdb file 9/namdcph.md.pdb
Info: READING EXTRA BONDS FILE 9/namdcph.sw.extrabonds
Info: LONG-RANGE LJ: APPLYING ANALYTICAL CORRECTIONS TO ENERGY AND PRESSURE
Info: LONG-RANGE LJ: AVERAGE A AND B COEFFICIENTS 257940 AND 189.542
Info: STRUCTURE SUMMARY:
Info: 863 ATOMS
Info: 864 BONDS
Info: 1559 ANGLES
Info: 2262 DIHEDRALS
Info: 177 IMPROPERS
Info: 54 CROSSTERMS
Info: 0 EXCLUSIONS
Info: 440 RIGID BONDS
Info: 2149 DEGREES OF FREEDOM
Info: 423 HYDROGEN GROUPS
Info: 4 ATOMS IN LARGEST HYDROGEN GROUP
Info: 423 MIGRATION GROUPS
Info: 4 ATOMS IN LARGEST MIGRATION GROUP
Info: TOTAL MASS = 6022.82 amu
Info: TOTAL CHARGE = 2 e
Info: MASS DENSITY = 0.0463026 g/cm^3
Info: ATOM DENSITY = 0.00399537 atoms/A^3
Info: ADDED 4679 IMPLICIT EXCLUSIONS
Info: NONBONDED TABLE R-SQUARED SPACING: 0.0625
Info: NONBONDED TABLE SIZE: 769 POINTS
TCL: Reinitializing atom data from files with basename 9/namdcph.md
Info: REMOVING COM VELOCITY 0.202636 0.150757 0.0168802
TCL: Running for 1000 steps
ETITLE: TS BOND ANGLE DIHED IMPRP ELECT VDW BOUNDARY MISC KINETIC TOTAL TEMP POTENTIAL TOTAL3 TEMPAVG PRESSURE GPRESSURE VOLUME PRESSAVG GPRESSAVG
ENERGY: 5000 162.7915 518.3372 482.4375 35.9048 -1295.2693 -121.7012 0.0000 0.0000 626.9764 409.4768 293.6332 -217.4996 416.8706 298.3357 -156.2394 -155.7266 216000.0000 -3.3488 -3.3096
TCL: namdcph) Proposal rejected.
TCL: Running for 1000 steps without repeating first step
TCL: namdcph) Proposal rejected.
TCL: Running for 1000 steps without repeating first step
TCL: namdcph) Proposal rejected.
TCL: Running for 1000 steps without repeating first step
TCL: namdcph) Proposal rejected.
TCL: Running for 1000 steps without repeating first step
TCL: namdcph) Proposal rejected.
TCL: Running for 1000 steps without repeating first step
ETITLE: TS BOND ANGLE DIHED IMPRP ELECT VDW BOUNDARY MISC KINETIC TOTAL TEMP POTENTIAL TOTAL3 TEMPAVG PRESSURE GPRESSURE VOLUME PRESSAVG GPRESSAVG
ENERGY: 10000 160.8462 512.6392 491.6659 39.0486 -1316.8465 -111.7665 0.0000 0.0000 644.7901 420.3770 301.9759 -224.4131 428.0838 295.5032 40.6403 41.0679 216000.0000 -14.1626 -14.1604
TCL: namdcph) Proposal rejected.
TCL: Running for 1000 steps without repeating first step
TCL: namdcph) Proposal rejected.
TCL: Running for 1000 steps without repeating first step
TCL: namdcph) Proposal rejected.
TCL: Running for 1000 steps without repeating first step
TCL: namdcph) Proposal rejected.
TCL: Running for 1000 steps without repeating first step
TCL: namdcph) Proposal rejected.
TCL: Running for 1000 steps without repeating first step
ETITLE: TS BOND ANGLE DIHED IMPRP ELECT VDW BOUNDARY MISC KINETIC TOTAL TEMP POTENTIAL TOTAL3 TEMPAVG PRESSURE GPRESSURE VOLUME PRESSAVG GPRESSAVG
ENERGY: 15000 162.5505 529.7052 487.2822 44.0917 -1313.6106 -127.9523 0.0000 0.0000 670.9347 453.0014 314.2203 -217.9334 461.0097 299.3080 -81.9791 -80.5400 216000.0000 -10.7941 -10.7962
TCL: namdcph) Proposal rejected.
TCL: Running for 1000 steps without repeating first step
TCL: namdcph) Proposal rejected.
TCL: Running for 1000 steps without repeating first step
TCL: namdcph) Proposal rejected.
TCL: Running for 1000 steps without repeating first step
TCL: namdcph) Proposal rejected.
TCL: Running for 1000 steps without repeating first step
TCL: namdcph) Proposal rejected.
TCL: Running for 1000 steps without repeating first step
ETITLE: TS BOND ANGLE DIHED IMPRP ELECT VDW BOUNDARY MISC KINETIC TOTAL TEMP POTENTIAL TOTAL3 TEMPAVG PRESSURE GPRESSURE VOLUME PRESSAVG GPRESSAVG
ENERGY: 20000 147.2397 517.3169 486.7029 38.5570 -1325.5412 -100.9767 0.0000 0.0000 631.6265 394.9250 295.8110 -236.7015 403.6479 298.5634 200.5109 199.6342 216000.0000 -13.4873 -13.4907
TCL: namdcph) Proposal rejected.
TCL: Running for 1000 steps without repeating first step
TCL: namdcph) Proposal rejected.
TCL: Running for 1000 steps without repeating first step
TCL: namdcph) Proposal rejected.
TCL: Running for 1000 steps without repeating first step
TCL: namdcph) Proposal rejected.
TCL: Running for 1000 steps without repeating first step
TCL: namdcph) Proposal rejected.
TCL: Running for 1000 steps without repeating first step
ETITLE: TS BOND ANGLE DIHED IMPRP ELECT VDW BOUNDARY MISC KINETIC TOTAL TEMP POTENTIAL TOTAL3 TEMPAVG PRESSURE GPRESSURE VOLUME PRESSAVG GPRESSAVG
ENERGY: 25000 161.3142 533.4847 492.5073 38.1014 -1334.2172 -127.6049 0.0000 0.0000 660.9891 424.5746 309.5624 -236.4145 433.0513 293.0878 -11.1587 -9.6384 216000.0000 -13.1053 -13.1073
TCL: namdcph) Proposal rejected.
TCL: Running for 1000 steps without repeating first step
TCL: namdcph) Proposal rejected.
TCL: Running for 1000 steps without repeating first step
TCL: namdcph) Proposal rejected.
TCL: Running for 1000 steps without repeating first step
TCL: namdcph) Proposal rejected.
TCL: Running for 1000 steps without repeating first step
TCL: namdcph) Proposal rejected.
TCL: Running for 1000 steps without repeating first step
ETITLE: TS BOND ANGLE DIHED IMPRP ELECT VDW BOUNDARY MISC KINETIC TOTAL TEMP POTENTIAL TOTAL3 TEMPAVG PRESSURE GPRESSURE VOLUME PRESSAVG GPRESSAVG
ENERGY: 30000 175.8910 510.5157 474.3497 27.8539 -1332.0961 -102.0792 0.0000 0.0000 636.3025 390.7374 298.0009 -245.5651 399.5717 296.5955 68.5423 70.1925 216000.0000 -13.2114 -13.2019
TCL: namdcph) Proposal rejected.
TCL: Running for 1000 steps without repeating first step
TCL: namdcph) Proposal rejected.
TCL: Running for 1000 steps without repeating first step
TCL: namdcph) Proposal rejected.
TCL: Running for 1000 steps without repeating first step
TCL: namdcph) Proposal rejected.
TCL: Running for 1000 steps without repeating first step
TCL: namdcph) Proposal rejected.
TCL: Running for 1000 steps without repeating first step
ETITLE: TS BOND ANGLE DIHED IMPRP ELECT VDW BOUNDARY MISC KINETIC TOTAL TEMP POTENTIAL TOTAL3 TEMPAVG PRESSURE GPRESSURE VOLUME PRESSAVG GPRESSAVG
ENERGY: 35000 166.7348 509.9232 489.7845 31.1648 -1298.8183 -113.8729 0.0000 0.0000 627.0389 411.9550 293.6625 -215.0839 418.1777 293.9689 -18.7160 -18.0381 216000.0000 -14.2060 -14.2180
TCL: namdcph) Proposal rejected.
TCL: Running for 1000 steps without repeating first step
TCL: namdcph) Proposal rejected.
TCL: Running for 1000 steps without repeating first step
TCL: namdcph) Proposal rejected.
TCL: Running for 1000 steps without repeating first step
TCL: namdcph) Proposal rejected.
TCL: Running for 1000 steps without repeating first step
TCL: namdcph) Proposal rejected.
TCL: Running for 1000 steps without repeating first step
ETITLE: TS BOND ANGLE DIHED IMPRP ELECT VDW BOUNDARY MISC KINETIC TOTAL TEMP POTENTIAL TOTAL3 TEMPAVG PRESSURE GPRESSURE VOLUME PRESSAVG GPRESSAVG
ENERGY: 40000 177.4923 511.3317 474.7552 35.6672 -1327.2463 -127.1353 0.0000 0.0000 671.8935 416.7581 314.6693 -255.1353 425.8393 297.1419 -85.3899 -82.5611 216000.0000 -14.9460 -14.9513
TCL: namdcph) Proposal rejected.
TCL: Running for 1000 steps without repeating first step
TCL: namdcph) Proposal rejected.
TCL: Running for 1000 steps without repeating first step
TCL: namdcph) Proposal rejected.
TCL: Running for 1000 steps without repeating first step
TCL: namdcph) Proposal rejected.
TCL: Running for 1000 steps without repeating first step
TCL: namdcph) Proposal rejected.
TCL: Running for 1000 steps without repeating first step
ETITLE: TS BOND ANGLE DIHED IMPRP ELECT VDW BOUNDARY MISC KINETIC TOTAL TEMP POTENTIAL TOTAL3 TEMPAVG PRESSURE GPRESSURE VOLUME PRESSAVG GPRESSAVG
ENERGY: 45000 174.3291 515.0284 496.2037 37.3939 -1303.9991 -104.8122 0.0000 0.0000 624.7199 438.8637 292.5764 -185.8562 446.2722 296.1985 74.7718 74.4185 216000.0000 -10.1782 -10.1693
TCL: namdcph) Proposal rejected.
TCL: Running for 1000 steps without repeating first step
TCL: namdcph) Proposal rejected.
TCL: Running for 1000 steps without repeating first step
TCL: namdcph) Proposal rejected.
TCL: Running for 1000 steps without repeating first step
TCL: namdcph) Proposal rejected.
TCL: Running for 1000 steps without repeating first step
TCL: namdcph) Proposal rejected.
TCL: Running for 1000 steps without repeating first step
ETITLE: TS BOND ANGLE DIHED IMPRP ELECT VDW BOUNDARY MISC KINETIC TOTAL TEMP POTENTIAL TOTAL3 TEMPAVG PRESSURE GPRESSURE VOLUME PRESSAVG GPRESSAVG
ENERGY: 50000 163.1430 546.8843 509.5769 37.8507 -1305.3101 -114.0966 0.0000 0.0000 639.6086 477.6568 299.5493 -161.9518 484.9950 299.7596 -128.2990 -127.9265 216000.0000 -9.6076 -9.6018
TCL: namdcph) Proposal rejected.
TCL: Running for 1000 steps without repeating first step
TCL: namdcph) Proposal rejected.
TCL: Running for 1000 steps without repeating first step
TCL: namdcph) Proposal rejected.
TCL: Running for 1000 steps without repeating first step
TCL: namdcph) Proposal rejected.
TCL: Running for 1000 steps without repeating first step
TCL: namdcph) Proposal rejected.
TCL: Running for 1000 steps without repeating first step
ETITLE: TS BOND ANGLE DIHED IMPRP ELECT VDW BOUNDARY MISC KINETIC TOTAL TEMP POTENTIAL TOTAL3 TEMPAVG PRESSURE GPRESSURE VOLUME PRESSAVG GPRESSAVG
ENERGY: 55000 150.8328 519.4557 500.0875 35.5323 -1323.2850 -90.9706 0.0000 0.0000 615.6725 407.3253 288.3392 -208.3473 413.2436 302.7308 14.9779 16.8423 216000.0000 -12.2546 -12.2644
TCL: namdcph) Proposal rejected.
TCL: Running for 1000 steps without repeating first step
TCL: namdcph) Proposal rejected.
TCL: Running for 1000 steps without repeating first step
TCL: namdcph) Proposal rejected.
TCL: Running for 1000 steps without repeating first step
TCL: namdcph) Proposal rejected.
TCL: Running for 1000 steps without repeating first step
TCL: namdcph) Proposal rejected.
TCL: Running for 1000 steps without repeating first step
ETITLE: TS BOND ANGLE DIHED IMPRP ELECT VDW BOUNDARY MISC KINETIC TOTAL TEMP POTENTIAL TOTAL3 TEMPAVG PRESSURE GPRESSURE VOLUME PRESSAVG GPRESSAVG
ENERGY: 60000 168.3291 531.5217 515.7169 40.9860 -1318.4873 -107.0479 0.0000 0.0000 661.7801 492.7986 309.9329 -168.9815 501.3125 301.9510 -46.9988 -45.2568 216000.0000 -13.1712 -13.1725
TCL: namdcph) Proposal rejected.
TCL: Running for 1000 steps without repeating first step
TCL: namdcph) Proposal rejected.
TCL: Running for 1000 steps without repeating first step
TCL: namdcph) Proposal rejected.
TCL: Running for 1000 steps without repeating first step
TCL: namdcph) Proposal rejected.
TCL: Running for 1000 steps without repeating first step
TCL: namdcph) Proposal rejected.
TCL: Running for 1000 steps without repeating first step
ETITLE: TS BOND ANGLE DIHED IMPRP ELECT VDW BOUNDARY MISC KINETIC TOTAL TEMP POTENTIAL TOTAL3 TEMPAVG PRESSURE GPRESSURE VOLUME PRESSAVG GPRESSAVG
ENERGY: 65000 157.0887 506.1523 498.3353 36.8196 -1320.9663 -126.7455 0.0000 0.0000 625.3332 376.0172 292.8636 -249.3160 384.5430 295.1757 -22.1885 -22.0189 216000.0000 -13.3637 -13.3705
TCL: namdcph) Proposal rejected.
TCL: Running for 1000 steps without repeating first step
TCL: namdcph) Proposal rejected.
TCL: Running for 1000 steps without repeating first step
TCL: namdcph) Proposal rejected.
TCL: Running for 1000 steps without repeating first step
TCL: namdcph) Proposal rejected.
TCL: Running for 1000 steps without repeating first step
TCL: namdcph) Proposal rejected.
TCL: Running for 1000 steps without repeating first step
ETITLE: TS BOND ANGLE DIHED IMPRP ELECT VDW BOUNDARY MISC KINETIC TOTAL TEMP POTENTIAL TOTAL3 TEMPAVG PRESSURE GPRESSURE VOLUME PRESSAVG GPRESSAVG
ENERGY: 70000 149.6891 520.7691 479.9134 34.2725 -1306.3694 -111.3398 0.0000 0.0000 624.4435 391.3783 292.4470 -233.0651 399.0182 295.9200 -39.2029 -38.5719 216000.0000 -15.7073 -15.7205
TCL: namdcph) Proposal rejected.
TCL: Running for 1000 steps without repeating first step
TCL: namdcph) Proposal rejected.
TCL: Running for 1000 steps without repeating first step
TCL: namdcph) Proposal rejected.
TCL: Running for 1000 steps without repeating first step
TCL: namdcph) Proposal rejected.
TCL: Running for 1000 steps without repeating first step
TCL: namdcph) Proposal rejected.
TCL: Running for 1000 steps without repeating first step
ETITLE: TS BOND ANGLE DIHED IMPRP ELECT VDW BOUNDARY MISC KINETIC TOTAL TEMP POTENTIAL TOTAL3 TEMPAVG PRESSURE GPRESSURE VOLUME PRESSAVG GPRESSAVG
ENERGY: 75000 159.6726 518.0148 494.7894 45.9219 -1306.5816 -113.2493 0.0000 0.0000 691.8210 490.3888 324.0020 -201.4322 499.5794 302.7092 20.9225 19.7744 216000.0000 -10.1082 -10.1062
TCL: namdcph) Proposal rejected.
TCL: Running for 1000 steps without repeating first step
TCL: namdcph) Proposal rejected.
TCL: Running for 1000 steps without repeating first step
TCL: namdcph) Proposal rejected.
TCL: Running for 1000 steps without repeating first step
TCL: namdcph) Proposal rejected.
TCL: Running for 1000 steps without repeating first step
TCL: namdcph) Proposal rejected.
TCL: Running for 1000 steps without repeating first step
ETITLE: TS BOND ANGLE DIHED IMPRP ELECT VDW BOUNDARY MISC KINETIC TOTAL TEMP POTENTIAL TOTAL3 TEMPAVG PRESSURE GPRESSURE VOLUME PRESSAVG GPRESSAVG
ENERGY: 80000 161.9304 528.5241 497.5174 36.7623 -1329.1221 -129.7677 0.0000 0.0000 638.2197 404.0642 298.8988 -234.1554 411.6542 301.6837 -5.0033 -3.9016 216000.0000 -8.4867 -8.4866
TCL: namdcph) Proposal rejected.
TCL: Running for 1000 steps without repeating first step
TCL: namdcph) Proposal rejected.
TCL: Running for 1000 steps without repeating first step
TCL: namdcph) Proposal rejected.
TCL: Running for 1000 steps without repeating first step
TCL: namdcph) Proposal rejected.
TCL: Running for 1000 steps without repeating first step
TCL: namdcph) Proposal rejected.
TCL: Running for 1000 steps without repeating first step
ETITLE: TS BOND ANGLE DIHED IMPRP ELECT VDW BOUNDARY MISC KINETIC TOTAL TEMP POTENTIAL TOTAL3 TEMPAVG PRESSURE GPRESSURE VOLUME PRESSAVG GPRESSAVG
ENERGY: 85000 169.7228 507.3543 497.8650 35.6518 -1295.3430 -135.0152 0.0000 0.0000 653.7834 434.0191 306.1878 -219.7643 441.6522 292.9921 -126.6426 -126.2332 216000.0000 -15.1381 -15.1441
TCL: namdcph) Proposal rejected.
TCL: Running for 1000 steps without repeating first step
TCL: namdcph) Proposal rejected.
TCL: Running for 1000 steps without repeating first step
TCL: namdcph) Proposal rejected.
TCL: Running for 1000 steps without repeating first step
TCL: namdcph) Proposal rejected.
TCL: Running for 1000 steps without repeating first step
TCL: namdcph) Proposal rejected.
TCL: Running for 1000 steps without repeating first step
ETITLE: TS BOND ANGLE DIHED IMPRP ELECT VDW BOUNDARY MISC KINETIC TOTAL TEMP POTENTIAL TOTAL3 TEMPAVG PRESSURE GPRESSURE VOLUME PRESSAVG GPRESSAVG
ENERGY: 90000 175.6606 519.1218 492.4023 30.6630 -1319.4698 -104.6253 0.0000 0.0000 628.0468 421.7993 294.1345 -206.2474 430.1695 301.3540 9.0882 9.8846 216000.0000 -12.2293 -12.2382
TCL: namdcph) Proposal rejected.
TCL: Running for 1000 steps without repeating first step
TCL: namdcph) Proposal rejected.
TCL: Running for 1000 steps without repeating first step
TCL: namdcph) Proposal rejected.
TCL: Running for 1000 steps without repeating first step
TCL: namdcph) Proposal rejected.
TCL: Running for 1000 steps without repeating first step
TCL: namdcph) Proposal rejected.
TCL: Running for 1000 steps without repeating first step
ETITLE: TS BOND ANGLE DIHED IMPRP ELECT VDW BOUNDARY MISC KINETIC TOTAL TEMP POTENTIAL TOTAL3 TEMPAVG PRESSURE GPRESSURE VOLUME PRESSAVG GPRESSAVG
ENERGY: 95000 158.2325 541.7183 493.5041 36.4532 -1289.8212 -130.0361 0.0000 0.0000 664.7084 474.7592 311.3043 -189.9491 483.1489 300.4319 58.4718 60.6011 216000.0000 -9.6883 -9.6840
TCL: namdcph) Proposal rejected.
TCL: Running for 1000 steps without repeating first step
TCL: namdcph) Proposal rejected.
TCL: Running for 1000 steps without repeating first step
TCL: namdcph) Proposal rejected.
TCL: Running for 1000 steps without repeating first step
TCL: namdcph) Proposal rejected.
TCL: Running for 1000 steps without repeating first step
TCL: namdcph) Proposal accepted, attemping a switch.
TCL: Setting parameter outputEnergies to 75000
TCL: Setting parameter dcdFreq to 0
TCL: Setting parameter firstTimestep to 0
TCL: Setting parameter alch to on
Info: NONBONDED TABLE R-SQUARED SPACING: 0.0625
Info: NONBONDED TABLE SIZE: 769 POINTS
TCL: Writing to files with basename 9/namdcph.md.
TCL: cphpsfgen) creating new alchemical side chain for PP1:947:LYS
TCL: Reloading molecular structure from file 9/namdcph.sw.psf and pdb file 9/namdcph.sw.pdb
Info: READING EXTRA BONDS FILE 9/namdcph.sw.extrabonds
Info: READ 7 EXTRA BONDS
Info: To read alchdata from file: coordinate pdb file (default)
Info: To read alchflag data from column: 5
Info: LONG-RANGE LJ: APPLYING ANALYTICAL CORRECTIONS TO ENERGY AND PRESSURE
Info: LONG-RANGE LJ: AVERAGE A0 AND B0 COEFFICIENTS 257940 AND 189.542
Info: LONG-RANGE LJ: AVERAGE A1 AND B1 COEFFICIENTS 258542 AND 189.969
Info: STRUCTURE SUMMARY:
Info: 870 ATOMS
Info: 878 BONDS
Info: 1573 ANGLES
Info: 2283 DIHEDRALS
Info: 178 IMPROPERS
Info: 54 CROSSTERMS
Info: 0 EXCLUSIONS
Info: 445 RIGID BONDS
Info: ALCH: 7 ATOMS TO DISAPPEAR IN FINAL STATE
Info: ALCH: 7 ATOMS TO APPEAR IN FINAL STATE
Info: ALCH: 1 ANGLES LINKING INITIAL AND FINAL ATOMS DELETED
Info: ALCH: 6 DIHEDRALS LINKING INITIAL AND FINAL ATOMS DELETED
Info: 2165 DEGREES OF FREEDOM
Info: 425 HYDROGEN GROUPS
Info: 4 ATOMS IN LARGEST HYDROGEN GROUP
Info: 425 MIGRATION GROUPS
Info: 4 ATOMS IN LARGEST MIGRATION GROUP
Info: TOTAL MASS = 6053.88 amu
Info: TOTAL CHARGE = 2 e
Info: MASS DENSITY = 0.0465414 g/cm^3
Info: ATOM DENSITY = 0.00402778 atoms/A^3
Info: ADDED 4722 IMPLICIT EXCLUSIONS
Info: NONBONDED TABLE R-SQUARED SPACING: 0.0625
Info: NONBONDED TABLE SIZE: 769 POINTS
TCL: Reinitializing atom data from files with basename 9/namdcph.sw
Info: REMOVING COM VELOCITY 0.10284 -0.0590896 0.217676
TCL: Running for 75000 steps
ETITLE: TS BOND ANGLE DIHED IMPRP ELECT VDW BOUNDARY MISC KINETIC TOTAL TEMP POTENTIAL TOTAL3 TEMPAVG PRESSURE GPRESSURE VOLUME PRESSAVG GPRESSAVG
ENERGY: 0 172.6309 519.8208 498.7602 39.5932 -1324.3981 -118.3396 0.0000 0.0000 632.4972 420.5647 294.0296 -211.9325 427.3208 296.5878 60.9821 60.5727 216000.0000 -11.7740 -11.7653
ENERGY: 75000 181.3541 480.8108 491.2433 31.8744 -1293.4560 -86.4946 0.0000 0.0000 634.0379 439.3699 294.7458 -194.6680 447.5228 296.6622 34.7024 34.9364 216000.0000 -11.1546 -11.1554
TCL: Setting parameter outputEnergies to 5000
TCL: Setting parameter dcdFreq to 5000
TCL: namdcph) PP1:947:LYS:P:3 WorkCorr   -42.7954 CorrWork    40.9670
TCL: Setting parameter outputEnergies to 5000
TCL: Setting parameter dcdFreq to 5000
TCL: Setting parameter firstTimestep to 99000
TCL: namdcph) Switch rejected!
TCL: Setting parameter alch to off
Info: NONBONDED TABLE R-SQUARED SPACING: 0.0625
Info: NONBONDED TABLE SIZE: 769 POINTS
TCL: namdcph) clearing extraBondsFile 9/namdcph.sw.extrabonds
TCL: Reloading molecular structure from file 9/namdcph.md.psf and pdb file 9/namdcph.md.pdb
Info: READING EXTRA BONDS FILE 9/namdcph.sw.extrabonds
Info: LONG-RANGE LJ: APPLYING ANALYTICAL CORRECTIONS TO ENERGY AND PRESSURE
Info: LONG-RANGE LJ: AVERAGE A AND B COEFFICIENTS 257940 AND 189.542
Info: STRUCTURE SUMMARY:
Info: 863 ATOMS
Info: 864 BONDS
Info: 1559 ANGLES
Info: 2262 DIHEDRALS
Info: 177 IMPROPERS
Info: 54 CROSSTERMS
Info: 0 EXCLUSIONS
Info: 440 RIGID BONDS
Info: 2149 DEGREES OF FREEDOM
Info: 423 HYDROGEN GROUPS
Info: 4 ATOMS IN LARGEST HYDROGEN GROUP
Info: 423 MIGRATION GROUPS
Info: 4 ATOMS IN LARGEST MIGRATION GROUP
Info: TOTAL MASS = 6022.82 amu
Info: TOTAL CHARGE = 2 e
Info: MASS DENSITY = 0.0463026 g/cm^3
Info: ATOM DENSITY = 0.00399537 atoms/A^3
Info: ADDED 4679 IMPLICIT EXCLUSIONS
Info: NONBONDED TABLE R-SQUARED SPACING: 0.0625
Info: NONBONDED TABLE SIZE: 769 POINTS
TCL: Reinitializing atom data from files with basename 9/namdcph.md
Info: REMOVING COM VELOCITY 0.1269 -0.0841644 0.235305
TCL: Running for 1000 steps
ETITLE: TS BOND ANGLE DIHED IMPRP ELECT VDW BOUNDARY MISC KINETIC TOTAL TEMP POTENTIAL TOTAL3 TEMPAVG PRESSURE GPRESSURE VOLUME PRESSAVG GPRESSAVG
ENERGY: 100000 176.5426 506.8044 491.2972 27.7603 -1302.2740 -113.4098 0.0000 0.0000 638.6996 425.4204 299.1236 -213.2792 432.5711 297.5119 -33.2746 -30.5968 216000.0000 -8.9280 -8.9048
TCL: namdcph) Proposal rejected.
TCL: Running for 1000 steps without repeating first step
TCL: namdcph) Proposal rejected.
TCL: Running for 1000 steps without repeating first step
TCL: namdcph) Proposal rejected.
TCL: Running for 1000 steps without repeating first step
TCL: namdcph) Proposal rejected.
TCL: Running for 1000 steps without repeating first step
TCL: namdcph) Proposal rejected.
TCL: Running for 1000 steps without repeating first step
ETITLE: TS BOND ANGLE DIHED IMPRP ELECT VDW BOUNDARY MISC KINETIC TOTAL TEMP POTENTIAL TOTAL3 TEMPAVG PRESSURE GPRESSURE VOLUME PRESSAVG GPRESSAVG
ENERGY: 105000 173.9702 504.5249 494.6148 39.6386 -1314.9531 -105.7521 0.0000 0.0000 628.6854 420.7285 294.4336 -207.9568 427.1106 296.7455 -21.3065 -20.2268 216000.0000 -11.5376 -11.5433
TCL: namdcph) Proposal rejected.
TCL: Running for 1000 steps without repeating first step
TCL: namdcph) Proposal rejected.
TCL: Running for 1000 steps without repeating first step
TCL: namdcph) Proposal rejected.
TCL: Running for 1000 steps without repeating first step
TCL: namdcph) Proposal rejected.
TCL: Running for 1000 steps without repeating first step
TCL: namdcph) Proposal rejected.
TCL: Running for 1000 steps without repeating first step
ETITLE: TS BOND ANGLE DIHED IMPRP ELECT VDW BOUNDARY MISC KINETIC TOTAL TEMP POTENTIAL TOTAL3 TEMPAVG PRESSURE GPRESSURE VOLUME PRESSAVG GPRESSAVG
ENERGY: 110000 172.9415 499.1950 489.3657 37.6175 -1310.8090 -121.2049 0.0000 0.0000 663.0371 430.1429 310.5216 -232.8942 438.1436 294.3152 89.0486 88.4208 216000.0000 -8.3160 -8.3195
TCL: namdcph) Proposal rejected.
TCL: Running for 1000 steps without repeating first step
TCL: namdcph) Proposal rejected.
TCL: Running for 1000 steps without repeating first step
TCL: namdcph) Proposal rejected.
TCL: Running for 1000 steps without repeating first step
TCL: namdcph) Proposal rejected.
TCL: Running for 1000 steps without repeating first step
TCL: namdcph) Proposal rejected.
TCL: Running for 1000 steps without repeating first step
ETITLE: TS BOND ANGLE DIHED IMPRP ELECT VDW BOUNDARY MISC KINETIC TOTAL TEMP POTENTIAL TOTAL3 TEMPAVG PRESSURE GPRESSURE VOLUME PRESSAVG GPRESSAVG
ENERGY: 115000 173.4093 491.2223 493.9609 37.2910 -1331.1214 -114.9843 0.0000 0.0000 654.3222 404.0999 306.4401 -250.2222 412.5815 297.0314 -134.2009 -133.0517 216000.0000 -10.2612 -10.2618
TCL: namdcph) Proposal rejected.
TCL: Running for 1000 steps without repeating first step
TCL: namdcph) Proposal rejected.
TCL: Running for 1000 steps without repeating first step
TCL: namdcph) Proposal rejected.
TCL: Running for 1000 steps without repeating first step
TCL: namdcph) Proposal rejected.
TCL: Running for 1000 steps without repeating first step
TCL: namdcph) Proposal rejected.
TCL: Running for 1000 steps without repeating first step
ETITLE: TS BOND ANGLE DIHED IMPRP ELECT VDW BOUNDARY MISC KINETIC TOTAL TEMP POTENTIAL TOTAL3 TEMPAVG PRESSURE GPRESSURE VOLUME PRESSAVG GPRESSAVG
ENERGY: 120000 168.4681 486.4891 493.3781 39.8474 -1325.8910 -109.3507 0.0000 0.0000 635.5533 388.4942 297.6500 -247.0591 396.1697 297.6625 29.3327 29.9627 216000.0000 -6.3204 -6.3096
TCL: namdcph) Proposal rejected.
TCL: Running for 1000 steps without repeating first step
TCL: namdcph) Proposal rejected.
TCL: Running for 1000 steps without repeating first step
TCL: namdcph) Proposal rejected.
TCL: Running for 1000 steps without repeating first step
TCL: namdcph) Proposal rejected.
TCL: Running for 1000 steps without repeating first step
TCL: namdcph) Proposal rejected.
TCL: Running for 1000 steps without repeating first step
ETITLE: TS BOND ANGLE DIHED IMPRP ELECT VDW BOUNDARY MISC KINETIC TOTAL TEMP POTENTIAL TOTAL3 TEMPAVG PRESSURE GPRESSURE VOLUME PRESSAVG GPRESSAVG
ENERGY: 125000 155.3588 505.2242 489.4740 36.1322 -1295.0682 -118.2738 0.0000 0.0000 641.5812 414.4285 300.4731 -227.1528 423.5636 294.7174 32.1311 32.0279 216000.0000 -8.4219 -8.4180
TCL: namdcph) Proposal rejected.
TCL: Running for 1000 steps without repeating first step
TCL: namdcph) Proposal rejected.
TCL: Running for 1000 steps without repeating first step
TCL: namdcph) Proposal accepted, attemping a switch.
TCL: Setting parameter outputEnergies to 75000
TCL: Setting parameter dcdFreq to 0
TCL: Setting parameter firstTimestep to 0
TCL: Setting parameter alch to on
Info: NONBONDED TABLE R-SQUARED SPACING: 0.0625
Info: NONBONDED TABLE SIZE: 769 POINTS
TCL: Writing to files with basename 9/namdcph.md.
TCL: cphpsfgen) creating new alchemical side chain for PP1:933:LYS
TCL: Reloading molecular structure from file 9/namdcph.sw.psf and pdb file 9/namdcph.sw.pdb
Info: READING EXTRA BONDS FILE 9/namdcph.sw.extrabonds
Info: READ 7 EXTRA BONDS
Info: To read alchdata from file: coordinate pdb file (default)
Info: To read alchflag data from column: 5
Info: LONG-RANGE LJ: APPLYING ANALYTICAL CORRECTIONS TO ENERGY AND PRESSURE
Info: LONG-RANGE LJ: AVERAGE A0 AND B0 COEFFICIENTS 257940 AND 189.542
Info: LONG-RANGE LJ: AVERAGE A1 AND B1 COEFFICIENTS 258542 AND 189.969
Info: STRUCTURE SUMMARY:
Info: 870 ATOMS
Info: 878 BONDS
Info: 1573 ANGLES
Info: 2283 DIHEDRALS
Info: 178 IMPROPERS
Info: 54 CROSSTERMS
Info: 0 EXCLUSIONS
Info: 445 RIGID BONDS
Info: ALCH: 7 ATOMS TO DISAPPEAR IN FINAL STATE
Info: ALCH: 7 ATOMS TO APPEAR IN FINAL STATE
Info: ALCH: 1 ANGLES LINKING INITIAL AND FINAL ATOMS DELETED
Info: ALCH: 6 DIHEDRALS LINKING INITIAL AND FINAL ATOMS DELETED
Info: 2165 DEGREES OF FREEDOM
Info: 425 HYDROGEN GROUPS
Info: 4 ATOMS IN LARGEST HYDROGEN GROUP
Info: 425 MIGRATION GROUPS
Info: 4 ATOMS IN LARGEST MIGRATION GROUP
Info: TOTAL MASS = 6053.88 amu
Info: TOTAL CHARGE = 2 e
Info: MASS DENSITY = 0.0465414 g/cm^3
Info: ATOM DENSITY = 0.00402778 atoms/A^3
Info: ADDED 4722 IMPLICIT EXCLUSIONS
Info: NONBONDED TABLE R-SQUARED SPACING: 0.0625
Info: NONBONDED TABLE SIZE: 769 POINTS
TCL: Reinitializing atom data from files with basename 9/namdcph.sw
Info: REMOVING COM VELOCITY 0.0996934 -0.220326 -0.0365419
TCL: Running for 75000 steps
ETITLE: TS BOND ANGLE DIHED IMPRP ELECT VDW BOUNDARY MISC KINETIC TOTAL TEMP POTENTIAL TOTAL3 TEMPAVG PRESSURE GPRESSURE VOLUME PRESSAVG GPRESSAVG
ENERGY: 0 179.3310 517.4114 492.7436 32.9985 -1319.9496 -123.9063 0.0000 0.0000 643.2367 421.8653 299.0221 -221.3714 428.7627 298.0053 -129.0208 -128.5787 216000.0000 -2.8019 -2.7910
ENERGY: 75000 180.9696 511.3730 495.3426 35.2927 -1224.1397 -113.1537 0.0000 0.0000 646.7664 532.4508 300.6629 -114.3155 539.1549 298.2823 -2.9279 -6.2159 216000.0000 -9.9173 -9.9155
TCL: Setting parameter outputEnergies to 5000
TCL: Setting parameter dcdFreq to 5000
TCL: namdcph) PP1:933:LYS:P:2 WorkCorr   -42.7273 CorrWork    66.7051
TCL: Setting parameter outputEnergies to 5000
TCL: Setting parameter dcdFreq to 5000
TCL: Setting parameter firstTimestep to 127000
TCL: namdcph) Switch rejected!
TCL: Setting parameter alch to off
Info: NONBONDED TABLE R-SQUARED SPACING: 0.0625
Info: NONBONDED TABLE SIZE: 769 POINTS
TCL: namdcph) clearing extraBondsFile 9/namdcph.sw.extrabonds
TCL: Reloading molecular structure from file 9/namdcph.md.psf and pdb file 9/namdcph.md.pdb
Info: READING EXTRA BONDS FILE 9/namdcph.sw.extrabonds
Info: LONG-RANGE LJ: APPLYING ANALYTICAL CORRECTIONS TO ENERGY AND PRESSURE
Info: LONG-RANGE LJ: AVERAGE A AND B COEFFICIENTS 257940 AND 189.542
Info: STRUCTURE SUMMARY:
Info: 863 ATOMS
Info: 864 BONDS
Info: 1559 ANGLES
Info: 2262 DIHEDRALS
Info: 177 IMPROPERS
Info: 54 CROSSTERMS
Info: 0 EXCLUSIONS
Info: 440 RIGID BONDS
Info: 2149 DEGREES OF FREEDOM
Info: 423 HYDROGEN GROUPS
Info: 4 ATOMS IN LARGEST HYDROGEN GROUP
Info: 423 MIGRATION GROUPS
Info: 4 ATOMS IN LARGEST MIGRATION GROUP
Info: TOTAL MASS = 6022.82 amu
Info: TOTAL CHARGE = 2 e
Info: MASS DENSITY = 0.0463026 g/cm^3
Info: ATOM DENSITY = 0.00399537 atoms/A^3
Info: ADDED 4679 IMPLICIT EXCLUSIONS
Info: NONBONDED TABLE R-SQUARED SPACING: 0.0625
Info: NONBONDED TABLE SIZE: 769 POINTS
TCL: Reinitializing atom data from files with basename 9/namdcph.md
Info: REMOVING COM VELOCITY 0.0943149 -0.226851 -0.0432359
TCL: Running for 1000 steps
TCL: namdcph) Proposal rejected.
TCL: Running for 1000 steps without repeating first step
TCL: namdcph) Proposal rejected.
TCL: Running for 1000 steps without repeating first step
ETITLE: TS BOND ANGLE DIHED IMPRP ELECT VDW BOUNDARY MISC KINETIC TOTAL TEMP POTENTIAL TOTAL3 TEMPAVG PRESSURE GPRESSURE VOLUME PRESSAVG GPRESSAVG
ENERGY: 130000 174.7247 501.4565 506.4481 43.5663 -1308.2742 -120.3459 0.0000 0.0000 610.2418 407.8174 285.7959 -202.4245 414.0402 294.9450 -76.0512 -75.8481 216000.0000 -8.9645 -8.9744
TCL: namdcph) Proposal rejected.
TCL: Running for 1000 steps without repeating first step
TCL: namdcph) Proposal rejected.
TCL: Running for 1000 steps without repeating first step
TCL: namdcph) Proposal rejected.
TCL: Running for 1000 steps without repeating first step
TCL: namdcph) Proposal rejected.
TCL: Running for 1000 steps without repeating first step
TCL: namdcph) Proposal rejected.
TCL: Running for 1000 steps without repeating first step
ETITLE: TS BOND ANGLE DIHED IMPRP ELECT VDW BOUNDARY MISC KINETIC TOTAL TEMP POTENTIAL TOTAL3 TEMPAVG PRESSURE GPRESSURE VOLUME PRESSAVG GPRESSAVG
ENERGY: 135000 172.1671 537.7951 486.0323 34.5879 -1323.8963 -111.3689 0.0000 0.0000 606.9158 402.2329 284.2382 -204.6828 407.0835 292.3039 -97.4120 -95.4485 216000.0000 -7.8553 -7.8438
TCL: namdcph) Proposal rejected.
TCL: Running for 1000 steps without repeating first step
TCL: namdcph) Proposal accepted, attemping a switch.
TCL: Setting parameter outputEnergies to 75000
TCL: Setting parameter dcdFreq to 0
TCL: Setting parameter firstTimestep to 0
TCL: Setting parameter alch to on
Info: NONBONDED TABLE R-SQUARED SPACING: 0.0625
Info: NONBONDED TABLE SIZE: 769 POINTS
TCL: Writing to files with basename 9/namdcph.md.
TCL: cphpsfgen) creating new alchemical side chain for PP1:947:LYS
TCL: Reloading molecular structure from file 9/namdcph.sw.psf and pdb file 9/namdcph.sw.pdb
Info: READING EXTRA BONDS FILE 9/namdcph.sw.extrabonds
Info: READ 7 EXTRA BONDS
Info: To read alchdata from file: coordinate pdb file (default)
Info: To read alchflag data from column: 5
Info: LONG-RANGE LJ: APPLYING ANALYTICAL CORRECTIONS TO ENERGY AND PRESSURE
Info: LONG-RANGE LJ: AVERAGE A0 AND B0 COEFFICIENTS 257940 AND 189.542
Info: LONG-RANGE LJ: AVERAGE A1 AND B1 COEFFICIENTS 258542 AND 189.969
Info: STRUCTURE SUMMARY:
Info: 870 ATOMS
Info: 878 BONDS
Info: 1573 ANGLES
Info: 2283 DIHEDRALS
Info: 178 IMPROPERS
Info: 54 CROSSTERMS
Info: 0 EXCLUSIONS
Info: 445 RIGID BONDS
Info: ALCH: 7 ATOMS TO DISAPPEAR IN FINAL STATE
Info: ALCH: 7 ATOMS TO APPEAR IN FINAL STATE
Info: ALCH: 1 ANGLES LINKING INITIAL AND FINAL ATOMS DELETED
Info: ALCH: 6 DIHEDRALS LINKING INITIAL AND FINAL ATOMS DELETED
Info: 2165 DEGREES OF FREEDOM
Info: 425 HYDROGEN GROUPS
Info: 4 ATOMS IN LARGEST HYDROGEN GROUP
Info: 425 MIGRATION GROUPS
Info: 4 ATOMS IN LARGEST MIGRATION GROUP
Info: TOTAL MASS = 6053.88 amu
Info: TOTAL CHARGE = 2 e
Info: MASS DENSITY = 0.0465414 g/cm^3
Info: ATOM DENSITY = 0.00402778 atoms/A^3
Info: ADDED 4722 IMPLICIT EXCLUSIONS
Info: NONBONDED TABLE R-SQUARED SPACING: 0.0625
Info: NONBONDED TABLE SIZE: 769 POINTS
TCL: Reinitializing atom data from files with basename 9/namdcph.sw
Info: REMOVING COM VELOCITY -0.11378 0.255084 -0.167725
TCL: Running for 75000 steps
ETITLE: TS BOND ANGLE DIHED IMPRP ELECT VDW BOUNDARY MISC KINETIC TOTAL TEMP POTENTIAL TOTAL3 TEMPAVG PRESSURE GPRESSURE VOLUME PRESSAVG GPRESSAVG
ENERGY: 0 170.5412 522.2120 489.4571 40.7572 -1321.9506 -91.5838 0.0000 0.0000 606.9305 416.3638 282.1444 -190.5668 422.1093 292.4792 7.9551 8.3321 216000.0000 -5.9036 -5.9136
ENERGY: 75000 162.4286 491.1689 493.0177 38.0275 -1256.4974 -126.4750 0.0000 0.0000 637.4280 439.0983 296.3218 -198.3297 447.4849 296.4687 -30.3265 -29.2313 216000.0000 -10.2577 -10.2576
TCL: Setting parameter outputEnergies to 5000
TCL: Setting parameter dcdFreq to 5000
TCL: namdcph) PP1:947:LYS:P:2 WorkCorr   -42.7954 CorrWork    43.8981
TCL: Setting parameter outputEnergies to 5000
TCL: Setting parameter dcdFreq to 5000
TCL: Setting parameter firstTimestep to 136000
TCL: namdcph) Switch rejected!
TCL: Setting parameter alch to off
Info: NONBONDED TABLE R-SQUARED SPACING: 0.0625
Info: NONBONDED TABLE SIZE: 769 POINTS
TCL: namdcph) clearing extraBondsFile 9/namdcph.sw.extrabonds
TCL: Reloading molecular structure from file 9/namdcph.md.psf and pdb file 9/namdcph.md.pdb
Info: READING EXTRA BONDS FILE 9/namdcph.sw.extrabonds
Info: LONG-RANGE LJ: APPLYING ANALYTICAL CORRECTIONS TO ENERGY AND PRESSURE
Info: LONG-RANGE LJ: AVERAGE A AND B COEFFICIENTS 257940 AND 189.542
Info: STRUCTURE SUMMARY:
Info: 863 ATOMS
Info: 864 BONDS
Info: 1559 ANGLES
Info: 2262 DIHEDRALS
Info: 177 IMPROPERS
Info: 54 CROSSTERMS
Info: 0 EXCLUSIONS
Info: 440 RIGID BONDS
Info: 2149 DEGREES OF FREEDOM
Info: 423 HYDROGEN GROUPS
Info: 4 ATOMS IN LARGEST HYDROGEN GROUP
Info: 423 MIGRATION GROUPS
Info: 4 ATOMS IN LARGEST MIGRATION GROUP
Info: TOTAL MASS = 6022.82 amu
Info: TOTAL CHARGE = 2 e
Info: MASS DENSITY = 0.0463026 g/cm^3
Info: ATOM DENSITY = 0.00399537 atoms/A^3
Info: ADDED 4679 IMPLICIT EXCLUSIONS
Info: NONBONDED TABLE R-SQUARED SPACING: 0.0625
Info: NONBONDED TABLE SIZE: 769 POINTS
TCL: Reinitializing atom data from files with basename 9/namdcph.md
Info: REMOVING COM VELOCITY -0.0901831 0.244364 -0.17635
TCL: Running for 1000 steps
TCL: namdcph) Proposal rejected.
TCL: Running for 1000 steps without repeating first step
TCL: namdcph) Proposal rejected.
TCL: Running for 1000 steps without repeating first step
TCL: namdcph) Proposal rejected.
TCL: Running for 1000 steps without repeating first step
ETITLE: TS BOND ANGLE DIHED IMPRP ELECT VDW BOUNDARY MISC KINETIC TOTAL TEMP POTENTIAL TOTAL3 TEMPAVG PRESSURE GPRESSURE VOLUME PRESSAVG GPRESSAVG
ENERGY: 140000 167.8233 511.2111 499.4433 33.6168 -1330.4169 -96.8436 0.0000 0.0000 672.0094 456.8434 314.7236 -215.1660 465.2105 301.5056 71.1482 70.4686 216000.0000 -18.5448 -18.5511
TCL: namdcph) Proposal rejected.
TCL: Running for 1000 steps without repeating first step
TCL: namdcph) Proposal rejected.
TCL: Running for 1000 steps without repeating first step
TCL: namdcph) Proposal rejected.
TCL: Running for 1000 steps without repeating first step
TCL: namdcph) Proposal rejected.
TCL: Running for 1000 steps without repeating first step
TCL: namdcph) Proposal rejected.
TCL: Running for 1000 steps without repeating first step
ETITLE: TS BOND ANGLE DIHED IMPRP ELECT VDW BOUNDARY MISC KINETIC TOTAL TEMP POTENTIAL TOTAL3 TEMPAVG PRESSURE GPRESSURE VOLUME PRESSAVG GPRESSAVG
ENERGY: 145000 158.7002 527.8770 495.7791 30.6665 -1355.5192 -107.5445 0.0000 0.0000 659.4051 409.3642 308.8206 -250.0410 416.8906 299.1662 8.6791 6.1150 216000.0000 -14.1816 -14.1787
TCL: namdcph) Proposal rejected.
TCL: Running for 1000 steps without repeating first step
TCL: namdcph) Proposal rejected.
TCL: Running for 1000 steps without repeating first step
TCL: namdcph) Proposal rejected.
TCL: Running for 1000 steps without repeating first step
TCL: namdcph) Proposal rejected.
TCL: Running for 1000 steps without repeating first step
TCL: namdcph) Proposal rejected.
TCL: Running for 1000 steps without repeating first step
ETITLE: TS BOND ANGLE DIHED IMPRP ELECT VDW BOUNDARY MISC KINETIC TOTAL TEMP POTENTIAL TOTAL3 TEMPAVG PRESSURE GPRESSURE VOLUME PRESSAVG GPRESSAVG
ENERGY: 150000 166.6390 509.8048 488.7367 46.5004 -1337.2447 -114.9827 0.0000 0.0000 630.3861 389.8395 295.2301 -240.5466 397.3783 298.4462 -19.6980 -16.4433 216000.0000 -8.5731 -8.5712
TCL: namdcph) Proposal rejected.
TCL: Running for 1000 steps without repeating first step
TCL: namdcph) Proposal rejected.
TCL: Running for 1000 steps without repeating first step
TCL: namdcph) Proposal rejected.
TCL: Running for 1000 steps without repeating first step
TCL: namdcph) Proposal rejected.
TCL: Running for 1000 steps without repeating first step
TCL: namdcph) Proposal rejected.
TCL: Running for 1000 steps without repeating first step
ETITLE: TS BOND ANGLE DIHED IMPRP ELECT VDW BOUNDARY MISC KINETIC TOTAL TEMP POTENTIAL TOTAL3 TEMPAVG PRESSURE GPRESSURE VOLUME PRESSAVG GPRESSAVG
ENERGY: 155000 163.8408 546.6005 495.2280 40.8119 -1351.0763 -109.5466 0.0000 0.0000 629.5856 415.4438 294.8552 -214.1418 421.8981 294.9171 55.2457 56.0558 216000.0000 -1.5385 -1.5283
TCL: namdcph) Proposal rejected.
TCL: Running for 1000 steps without repeating first step
TCL: namdcph) Proposal rejected.
TCL: Running for 1000 steps without repeating first step
TCL: namdcph) Proposal rejected.
TCL: Running for 1000 steps without repeating first step
TCL: namdcph) Proposal rejected.
TCL: Running for 1000 steps without repeating first step
TCL: namdcph) Proposal rejected.
TCL: Running for 1000 steps without repeating first step
ETITLE: TS BOND ANGLE DIHED IMPRP ELECT VDW BOUNDARY MISC KINETIC TOTAL TEMP POTENTIAL TOTAL3 TEMPAVG PRESSURE GPRESSURE VOLUME PRESSAVG GPRESSAVG
ENERGY: 160000 162.4592 515.8971 496.4043 39.8307 -1323.7362 -115.8849 0.0000 0.0000 611.2903 386.2605 286.2869 -225.0299 393.1417 295.8304 -29.4738 -30.8764 216000.0000 -7.6071 -7.5910
TCL: namdcph) Proposal rejected.
TCL: Running for 1000 steps without repeating first step
TCL: namdcph) Proposal rejected.
TCL: Running for 1000 steps without repeating first step
TCL: namdcph) Proposal rejected.
TCL: Running for 1000 steps without repeating first step
TCL: namdcph) Proposal rejected.
TCL: Running for 1000 steps without repeating first step
TCL: namdcph) Proposal rejected.
TCL: Running for 1000 steps without repeating first step
ETITLE: TS BOND ANGLE DIHED IMPRP ELECT VDW BOUNDARY MISC KINETIC TOTAL TEMP POTENTIAL TOTAL3 TEMPAVG PRESSURE GPRESSURE VOLUME PRESSAVG GPRESSAVG
ENERGY: 165000 176.8246 505.6879 493.6086 38.3829 -1329.7916 -119.1706 0.0000 0.0000 633.5123 399.0542 296.6942 -234.4581 405.1629 296.5409 -157.5085 -159.8193 216000.0000 -1.5556 -1.5420
TCL: namdcph) Proposal rejected.
TCL: Running for 1000 steps without repeating first step
TCL: namdcph) Proposal rejected.
TCL: Running for 1000 steps without repeating first step
TCL: namdcph) Proposal rejected.
TCL: Running for 1000 steps without repeating first step
TCL: namdcph) Proposal rejected.
TCL: Running for 1000 steps without repeating first step
TCL: namdcph) Proposal rejected.
TCL: Running for 1000 steps without repeating first step
ETITLE: TS BOND ANGLE DIHED IMPRP ELECT VDW BOUNDARY MISC KINETIC TOTAL TEMP POTENTIAL TOTAL3 TEMPAVG PRESSURE GPRESSURE VOLUME PRESSAVG GPRESSAVG
ENERGY: 170000 155.1410 516.8028 487.5441 37.7918 -1315.9296 -121.2141 0.0000 0.0000 634.7688 394.9048 297.2826 -239.8640 402.8412 290.6584 50.2852 52.1383 216000.0000 -10.3210 -10.3253
TCL: namdcph) Proposal rejected.
TCL: Running for 1000 steps without repeating first step
TCL: namdcph) Proposal rejected.
TCL: Running for 1000 steps without repeating first step
TCL: namdcph) Proposal rejected.
TCL: Running for 1000 steps without repeating first step
TCL: namdcph) Proposal rejected.
TCL: Running for 1000 steps without repeating first step
TCL: namdcph) Proposal rejected.
TCL: Running for 1000 steps without repeating first step
Info: NONBONDED TABLE R-SQUARED SPACING: 0.0625
Info: NONBONDED TABLE SIZE: 769 POINTS
Info: READING EXTRA BONDS FILE 9/namdcph.sw.extrabonds
Info: READ 7 EXTRA BONDS
Info: To read alchdata from file: coordinate pdb file (default)
Info: To read alchflag data from column: 5
Info: LONG-RANGE LJ: APPLYING ANALYTICAL CORRECTIONS TO ENERGY AND PRESSURE
Info: LONG-RANGE LJ: AVERAGE A0 AND B0 COEFFICIENTS 257940 AND 189.542
Info: LONG-RANGE LJ: AVERAGE A1 AND B1 COEFFICIENTS 258542 AND 189.969
Info: STRUCTURE SUMMARY:
Info: 870 ATOMS
Info: 878 BONDS
Info: 1573 ANGLES
Info: 2283 DIHEDRALS
Info: 178 IMPROPERS
Info: 54 CROSSTERMS
Info: 0 EXCLUSIONS
Info: 445 RIGID BONDS
Info: ALCH: 7 ATOMS TO DISAPPEAR IN FINAL STATE
Info: ALCH: 7 ATOMS TO APPEAR IN FINAL STATE
Info: ALCH: 1 ANGLES LINKING INITIAL AND FINAL ATOMS DELETED
Info: ALCH: 6 DIHEDRALS LINKING INITIAL AND FINAL ATOMS DELETED
Info: 2165 DEGREES OF FREEDOM
Info: 425 HYDROGEN GROUPS
Info: 4 ATOMS IN LARGEST HYDROGEN GROUP
Info: 425 MIGRATION GROUPS
Info: 4 ATOMS IN LARGEST MIGRATION GROUP
Info: TOTAL MASS = 6053.88 amu
Info: TOTAL CHARGE = 2 e
Info: MASS DENSITY = 0.0465414 g/cm^3
Info: ATOM DENSITY = 0.00402778 atoms/A^3
Info: ADDED 4722 IMPLICIT EXCLUSIONS
Info: NONBONDED TABLE R-SQUARED SPACING: 0.0625
Info: NONBONDED TABLE SIZE: 769 POINTS
Info: REMOVING COM VELOCITY 0.0231183 -0.00580594 0.196772
Info: NONBONDED TABLE R-SQUARED SPACING: 0.0625
Info: NONBONDED TABLE SIZE: 769 POINTS
Info: READING EXTRA BONDS FILE 9/namdcph.sw.extrabonds
Info: LONG-RANGE LJ: APPLYING ANALYTICAL CORRECTIONS TO ENERGY AND PRESSURE
Info: LONG-RANGE LJ: AVERAGE A AND B COEFFICIENTS 257940 AND 189.542
Info: STRUCTURE SUMMARY:
Info: 863 ATOMS
Info: 864 BONDS
Info: 1559 ANGLES
Info: 2262 DIHEDRALS
Info: 177 IMPROPERS
Info: 54 CROSSTERMS
Info: 0 EXCLUSIONS
Info: 440 RIGID BONDS
Info: 2149 DEGREES OF FREEDOM
Info: 423 HYDROGEN GROUPS
Info: 4 ATOMS IN LARGEST HYDROGEN GROUP
Info: 423 MIGRATION GROUPS
Info: 4 ATOMS IN LARGEST MIGRATION GROUP
Info: TOTAL MASS = 6022.82 amu
Info: TOTAL CHARGE = 2 e
Info: MASS DENSITY = 0.0463026 g/cm^3
Info: ATOM DENSITY = 0.00399537 atoms/A^3
Info: ADDED 4679 IMPLICIT EXCLUSIONS
Info: NONBONDED TABLE R-SQUARED SPACING: 0.0625
Info: NONBONDED TABLE SIZE: 769 POINTS
Info: REMOVING COM VELOCITY -0.0145645 -0.0146431 0.188638
Info: NONBONDED TABLE R-SQUARED SPACING: 0.0625
Info: NONBONDED TABLE SIZE: 769 POINTS
Info: READING EXTRA BONDS FILE 9/namdcph.sw.extrabonds
Info: READ 7 EXTRA BONDS
Info: To read alchdata from file: coordinate pdb file (default)
Info: To read alchflag data from column: 5
Info: LONG-RANGE LJ: APPLYING ANALYTICAL CORRECTIONS TO ENERGY AND PRESSURE
Info: LONG-RANGE LJ: AVERAGE A0 AND B0 COEFFICIENTS 257940 AND 189.542
Info: LONG-RANGE LJ: AVERAGE A1 AND B1 COEFFICIENTS 258542 AND 189.969
Info: STRUCTURE SUMMARY:
Info: 870 ATOMS
Info: 878 BONDS
Info: 1573 ANGLES
Info: 2283 DIHEDRALS
Info: 178 IMPROPERS
Info: 54 CROSSTERMS
Info: 0 EXCLUSIONS
Info: 445 RIGID BONDS
Info: ALCH: 7 ATOMS TO DISAPPEAR IN FINAL STATE
Info: ALCH: 7 ATOMS TO APPEAR IN FINAL STATE
Info: ALCH: 1 ANGLES LINKING INITIAL AND FINAL ATOMS DELETED
Info: ALCH: 6 DIHEDRALS LINKING INITIAL AND FINAL ATOMS DELETED
Info: 2165 DEGREES OF FREEDOM
Info: 425 HYDROGEN GROUPS
Info: 4 ATOMS IN LARGEST HYDROGEN GROUP
Info: 425 MIGRATION GROUPS
Info: 4 ATOMS IN LARGEST MIGRATION GROUP
Info: TOTAL MASS = 6053.88 amu
Info: TOTAL CHARGE = 2 e
Info: MASS DENSITY = 0.0465414 g/cm^3
Info: ATOM DENSITY = 0.00402778 atoms/A^3
Info: ADDED 4722 IMPLICIT EXCLUSIONS
Info: NONBONDED TABLE R-SQUARED SPACING: 0.0625
Info: NONBONDED TABLE SIZE: 769 POINTS
Info: REMOVING COM VELOCITY 0.0474779 -0.0730602 -0.580428
Info: NONBONDED TABLE R-SQUARED SPACING: 0.0625
Info: NONBONDED TABLE SIZE: 769 POINTS
Info: READING EXTRA BONDS FILE 9/namdcph.sw.extrabonds
Info: LONG-RANGE LJ: APPLYING ANALYTICAL CORRECTIONS TO ENERGY AND PRESSURE
Info: LONG-RANGE LJ: AVERAGE A AND B COEFFICIENTS 257940 AND 189.542
Info: STRUCTURE SUMMARY:
Info: 863 ATOMS
Info: 864 BONDS
Info: 1559 ANGLES
Info: 2262 DIHEDRALS
Info: 177 IMPROPERS
Info: 54 CROSSTERMS
Info: 0 EXCLUSIONS
Info: 440 RIGID BONDS
Info: 2149 DEGREES OF FREEDOM
Info: 423 HYDROGEN GROUPS
Info: 4 ATOMS IN LARGEST HYDROGEN GROUP
Info: 423 MIGRATION GROUPS
Info: 4 ATOMS IN LARGEST MIGRATION GROUP
Info: TOTAL MASS = 6022.82 amu
Info: TOTAL CHARGE = 2 e
Info: MASS DENSITY = 0.0463026 g/cm^3
Info: ATOM DENSITY = 0.00399537 atoms/A^3
Info: ADDED 4679 IMPLICIT EXCLUSIONS
Info: NONBONDED TABLE R-SQUARED SPACING: 0.0625
Info: NONBONDED TABLE SIZE: 769 POINTS
Info: REMOVING COM VELOCITY 0.0388699 -0.0645639 -0.594575
