Info: SIMULATION PARAMETERS:
Info: TIMESTEP               2
Info: NUMBER OF STEPS        0
Info: STEPS PER CYCLE        20
Info: PERIODIC CELL BASIS 1  60 0 0
Info: PERIODIC CELL BASIS 2  0 60 0
Info: PERIODIC CELL BASIS 3  0 0 60
Info: PERIODIC CELL CENTER   0 0 0
Info: WRAPPING WATERS AROUND PERIODIC BOUNDARIES ON OUTPUT.
Info: WRAPPING ALL CLUSTERS AROUND PERIODIC BOUNDARIES ON OUTPUT.
Info: FIRST LDB TIMESTEP     100
Info: LAST LDB TIMESTEP     -1
Info: HOM BACKGROUND SCALING 1
Info: PME BACKGROUND SCALING 1
Info: MIN ATOMS PER PATCH    40
Info: INITIAL TEMPERATURE    298
Info: CENTER OF MASS MOVING INITIALLY? NO
Info: DIELECTRIC             1
Info: EXCLUDE                SCALED ONE-FOUR
Info: 1-4 ELECTROSTATICS SCALED BY 1
Info: MODIFIED 1-4 VDW PARAMETERS WILL BE USED
Info: DCD FILENAME           9/Pre9_0.dcd
Info: DCD FREQUENCY          5000
Info: DCD FIRST STEP         5000
Info: DCD FILE WILL CONTAIN UNIT CELL DATA
Info: NO EXTENDED SYSTEM TRAJECTORY OUTPUT
Info: NO VELOCITY DCD OUTPUT
Info: NO FORCE DCD OUTPUT
Info: OUTPUT FILENAME        9/Pre9_0
Info: BINARY OUTPUT FILES WILL BE USED
Info: NO RESTART FILE
Info: SWITCHING ACTIVE
Info: VDW FORCE SWITCHING ACTIVE
Info: SWITCHING ON           10
Info: SWITCHING OFF          12
Info: PAIRLIST DISTANCE      14
Info: PAIRLIST SHRINK RATE   0.01
Info: PAIRLIST GROW RATE     0.01
Info: PAIRLIST TRIGGER       0.3
Info: PAIRLISTS PER CYCLE    2
Info: PAIRLISTS ENABLED
Info: MARGIN                 2
Info: HYDROGEN GROUP CUTOFF  2.5
Info: PATCH DIMENSION        18.5
Info: ENERGY OUTPUT STEPS    5000
Info: CROSSTERM ENERGY INCLUDED IN DIHEDRAL
Info: TIMING OUTPUT STEPS    50000
Info: THERMODYNAMIC INTEGRATION (TI) ON
Info: TI LAMBDA VALUE     0
Info: TI INTRA-ALCHEMICAL NON-BONDED INTERACTIONS WILL BE DECOUPLED
Info: TI INTRA-ALCHEMICAL BONDED INTERACTIONS WILL BE DECOUPLED
Info: TI VDW SHIFTING COEFFICIENT 0
Info: TI ELEC. ACTIVE FOR ANNIHILATED PARTICLES BETWEEN LAMBDA = 0 AND LAMBDA = 1
Info: TI ELEC. ACTIVE FOR EXNIHILATED PARTICLES BETWEEN LAMBDA = 0 AND LAMBDA = 1
Info: TI VDW ACTIVE FOR ANNIHILATED PARTICLES BETWEEN LAMBDA = 0 AND LAMBDA = 1
Info: TI VDW ACTIVE FOR EXNIHILATED PARTICLES BETWEEN LAMBDA = 0 AND LAMBDA = 1
Info: TI BOND ACTIVE FOR ANNIHILATED PARTICLES BETWEEN LAMBDA = 0 AND LAMBDA = 1
Info: TI BOND ACTIVE FOR EXNIHILATED PARTICLES BETWEEN LAMBDA = 0 AND LAMBDA = 1
Info: LANGEVIN DYNAMICS ACTIVE
Info: LANGEVIN TEMPERATURE   298
Info: LANGEVIN USING BBK INTEGRATOR
Info: LANGEVIN DAMPING COEFFICIENT IS 1 INVERSE PS
Info: LANGEVIN DYNAMICS NOT APPLIED TO HYDROGENS
Info: PARTICLE MESH EWALD (PME) ACTIVE
Info: PME TOLERANCE               1e-06
Info: PME EWALD COEFFICIENT       0.257952
Info: PME INTERPOLATION ORDER     4
Info: PME GRID DIMENSIONS         60 60 60
Info: PME MAXIMUM GRID SPACING    1
Info: FULL ELECTROSTATIC EVALUATION FREQUENCY      2
Info: USING VERLET I (r-RESPA) MTS SCHEME.
Info: C1 SPLITTING OF LONG RANGE ELECTROSTATICS
Info: PLACING ATOMS IN PATCHES BY HYDROGEN GROUPS
Info: RIGID BONDS TO HYDROGEN : ALL
Info:         ERROR TOLERANCE : 1e-08
Info:          MAX ITERATIONS : 100
Info: RIGID WATER USING SETTLE ALGORITHM
Info: RANDOM NUMBER SEED     1685242260
Info: USE HYDROGEN BONDS?    NO
Info: COORDINATE PDB         ../topology/preD950N.pdb
Info: STRUCTURE FILE         ../topology/preD950N.psf
Info: PARAMETER file: CHARMM format!
Info: PARAMETERS             ../../toppar/par_all36_carb.prm
Info: PARAMETERS             ../../toppar/par_all36_cgenff.prm
Info: PARAMETERS             ../../toppar/par_all36_lipid.prm
Info: PARAMETERS             ../../toppar/par_all36_na.prm
Info: PARAMETERS             ../../toppar/par_all36_prot.prm
Info: PARAMETERS             ../../toppar/par_all36_solvent.prm
Info: PARAMETERS             ../../toppar/par_cph36_prot.prm
Info: PARAMETERS             ../../toppar/toppar_all36_carb_glycopeptide.str
Info: PARAMETERS             ../../toppar/toppar_water_ions_namd.str
Info: USING ARITHMETIC MEAN TO COMBINE L-J SIGMA PARAMETERS
Info: SKIPPING rtf SECTION IN STREAM FILE
Info: SKIPPING rtf SECTION IN STREAM FILE
Info: SUMMARY OF PARAMETERS:
Info: 925 BONDS
Info: 2696 ANGLES
Info: 6608 DIHEDRAL
Info: 195 IMPROPER
Info: 6 CROSSTERM
Info: 366 VDW
Info: 6 VDW_PAIRS
Info: 0 NBTHOLE_PAIRS
Info: READING EXTRA BONDS FILE 9/namdcph.sw.extrabonds
Info: To read alchdata from file: coordinate pdb file (default)
Info: To read alchflag data from column: 5
Info: LONG-RANGE LJ: APPLYING ANALYTICAL CORRECTIONS TO ENERGY AND PRESSURE
Info: LONG-RANGE LJ: AVERAGE A0 AND B0 COEFFICIENTS 257940 AND 189.542
Info: LONG-RANGE LJ: AVERAGE A1 AND B1 COEFFICIENTS 257940 AND 189.542
Info: STRUCTURE SUMMARY:
Info: 859 ATOMS
Info: 860 BONDS
Info: 1555 ANGLES
Info: 2254 DIHEDRALS
Info: 177 IMPROPERS
Info: 54 CROSSTERMS
Info: 0 EXCLUSIONS
Info: 436 RIGID BONDS
Info: ALCH: 0 ATOMS TO DISAPPEAR IN FINAL STATE
Info: ALCH: 0 ATOMS TO APPEAR IN FINAL STATE
Info: 2141 DEGREES OF FREEDOM
Info: 423 HYDROGEN GROUPS
Info: 4 ATOMS IN LARGEST HYDROGEN GROUP
Info: 423 MIGRATION GROUPS
Info: 4 ATOMS IN LARGEST MIGRATION GROUP
Info: TOTAL MASS = 6018.79 amu
Info: TOTAL CHARGE = 2 e
Info: MASS DENSITY = 0.0462716 g/cm^3
Info: ATOM DENSITY = 0.00397685 atoms/A^3
Info: ADDED 4663 IMPLICIT EXCLUSIONS
Info: NONBONDED TABLE R-SQUARED SPACING: 0.0625
Info: NONBONDED TABLE SIZE: 769 POINTS
Info: REMOVING COM VELOCITY -0.23408 0.0839466 -0.090795
TCL: Setting parameter alchLambdaFreq to 1
Info: NONBONDED TABLE R-SQUARED SPACING: 0.0625
Info: NONBONDED TABLE SIZE: 769 POINTS
TCL: Setting parameter alch to off
Info: NONBONDED TABLE R-SQUARED SPACING: 0.0625
Info: NONBONDED TABLE SIZE: 769 POINTS
TCL: namdcph) initializing constant pH PSF...
TCL: WARNING! Building new atom PP1:918:HE1 with unknown mass.
TCL:          This may cause issues, for example, with mass repartitioning.
TCL: WARNING! Building new atom PP1:918:HE2 with unknown mass.
TCL:          This may cause issues, for example, with mass repartitioning.
TCL: WARNING! Building new atom PP1:936:HD1 with unknown mass.
TCL:          This may cause issues, for example, with mass repartitioning.
TCL: WARNING! Building new atom PP1:936:HD2 with unknown mass.
TCL:          This may cause issues, for example, with mass repartitioning.
TCL: cphpsfgen) creating new alchemical side chain for PP1:918:GLU
TCL: cphpsfgen) merging alchemical sidechains for PP1:918:GLU
TCL: cphpsfgen) creating new alchemical side chain for PP1:921:LYS
TCL: cphpsfgen) merging alchemical sidechains for PP1:921:LYS
TCL: cphpsfgen) creating new alchemical side chain for PP1:933:LYS
TCL: cphpsfgen) merging alchemical sidechains for PP1:933:LYS
TCL: cphpsfgen) creating new alchemical side chain for PP1:936:ASP
TCL: cphpsfgen) merging alchemical sidechains for PP1:936:ASP
TCL: cphpsfgen) creating new alchemical side chain for PP1:947:LYS
TCL: cphpsfgen) merging alchemical sidechains for PP1:947:LYS
TCL: cphpsfgen) creating new alchemical side chain for PP1:964:LYS
TCL: cphpsfgen) merging alchemical sidechains for PP1:964:LYS
TCL: namdcph) ***************************************
TCL: namdcph) CONSTANT pH MD ACTIVE
TCL: namdcph) SYSTEM pH 9
TCL: namdcph) CONSTANT pH CONFIGURATION FILE(S)
TCL: namdcph) ../../toppar/conf_cph36_prot.json
TCL: namdcph) NONEQUILIBRIUM SWITCH PARAMETERS:
TCL: namdcph) ALCHEMICAL FORCE CONSTANT 100.0 kcal/mol-A^2
TCL: namdcph) neMD/MC CRITERION TEMPERATURE 298.0
TCL: namdcph) TEMPORARY FILE INFORMATION:
TCL: namdcph) cpH TOPOLOGY FILE BASENAME 9/namdcph.md
TCL: namdcph) neMD/MC TRAJECTORY BASENAME 9/namdcph.sw
TCL: namdcph) ***************************************
TCL: namdcph) ***************************************
TCL: namdcph) TITRATABLE RESIDUE DEFINITIONS:
TCL: namdcph) HIS ASP GLU CYS LYS
TCL: namdcph) TITRATABLE SYSTEM SUMMARY:
TCL: namdcph) 6 RESIDUE(S)
TCL: namdcph) 16 PROTONATION SITE(S)
TCL: namdcph) ***************************************
TCL: namdcph) segid:resid:resname : state : pKai
TCL: namdcph) PP1:918:GLU         :     D : 4.68
TCL: namdcph) PP1:921:LYS         :     P : 10.47
TCL: namdcph) PP1:933:LYS         :     P : 10.42
TCL: namdcph) PP1:936:ASP         :     D : 3.83
TCL: namdcph) PP1:947:LYS         :     P : 10.47
TCL: namdcph) PP1:964:LYS         :     P : 10.40
TCL: namdcph) ***************************************
TCL: namdcph) *************************************************
TCL: namdcph) CONSTANT pH neMD/MC MOVES:
TCL: namdcph) MAX. ATTEMPTS PER CYCLE: 1
TCL: namdcph) ONE RESIDUE MOVES
TCL: namdcph) move label     : numsteps   weight
TCL: namdcph) PP1:918:GLU    :    75000     1.00
TCL: namdcph) PP1:921:LYS    :    75000     1.00
TCL: namdcph) PP1:933:LYS    :    75000     1.00
TCL: namdcph) PP1:936:ASP    :    75000     1.00
TCL: namdcph) PP1:947:LYS    :    75000     1.00
TCL: namdcph) PP1:964:LYS    :    75000     1.00
TCL: namdcph) *************************************************
TCL: namdcph) clearing extraBondsFile 9/namdcph.sw.extrabonds
TCL: Reloading molecular structure from file 9/namdcph.md.psf and pdb file 9/namdcph.md.pdb
Info: READING EXTRA BONDS FILE 9/namdcph.sw.extrabonds
Info: LONG-RANGE LJ: APPLYING ANALYTICAL CORRECTIONS TO ENERGY AND PRESSURE
Info: LONG-RANGE LJ: AVERAGE A AND B COEFFICIENTS 257940 AND 189.542
Info: STRUCTURE SUMMARY:
Info: 863 ATOMS
Info: 864 BONDS
Info: 1559 ANGLES
Info: 2262 DIHEDRALS
Info: 177 IMPROPERS
Info: 54 CROSSTERMS
Info: 0 EXCLUSIONS
Info: 440 RIGID BONDS
Info: 2149 DEGREES OF FREEDOM
Info: 423 HYDROGEN GROUPS
Info: 4 ATOMS IN LARGEST HYDROGEN GROUP
Info: 423 MIGRATION GROUPS
Info: 4 ATOMS IN LARGEST MIGRATION GROUP
Info: TOTAL MASS = 6022.82 amu
Info: TOTAL CHARGE = 2 e
Info: MASS DENSITY = 0.0463026 g/cm^3
Info: ATOM DENSITY = 0.00399537 atoms/A^3
Info: ADDED 4679 IMPLICIT EXCLUSIONS
Info: NONBONDED TABLE R-SQUARED SPACING: 0.0625
Info: NONBONDED TABLE SIZE: 769 POINTS
TCL: Reinitializing atom data from files with basename 9/namdcph.md
Info: REMOVING COM VELOCITY -0.120769 -0.00461148 0.00936492
TCL: Minimizing for 100 steps
ETITLE: TS BOND ANGLE DIHED IMPRP ELECT VDW BOUNDARY MISC KINETIC TOTAL TEMP POTENTIAL TOTAL3 TEMPAVG PRESSURE GPRESSURE VOLUME PRESSAVG GPRESSAVG
ENERGY: 0 50.7174 99.6492 448.8524 0.5597 -655.8481 99999999999.9999 0.0000 0.0000 0.0000 99999999999.9999 0.0000 99999999999.9999 99999999999.9999 0.0000 99999999999.9999 99999999999.9999 216000.0000 99999999999.9999 99999999999.9999
ENERGY: 20 3555.9403 1179.2157 518.1111 80.2523 -676.8478 4401.3562 0.0000 0.0000 0.0000 9058.0278 0.0000 9058.0278 9058.0278 0.0000 5694.7745 6138.4307 216000.0000 5694.7745 6138.4307
ENERGY: 40 652.0906 1033.8467 522.8706 21.8032 -695.4075 1458.0947 0.0000 0.0000 0.0000 2993.2983 0.0000 2993.2983 2993.2983 0.0000 2694.7209 2818.7179 216000.0000 2694.7209 2818.7179
ENERGY: 60 228.5523 838.5874 540.9221 27.4815 -715.2870 718.9429 0.0000 0.0000 0.0000 1639.1992 0.0000 1639.1992 1639.1992 0.0000 1736.4875 1813.7232 216000.0000 1736.4875 1813.7232
ENERGY: 80 162.4418 530.5710 541.8954 28.8082 -733.2951 304.2884 0.0000 0.0000 0.0000 834.7097 0.0000 834.7097 834.7097 0.0000 1114.8093 1135.1807 216000.0000 1114.8093 1135.1807
ENERGY: 100 87.6171 422.4765 531.7660 16.9213 -739.4980 163.5337 0.0000 0.0000 0.0000 482.8165 0.0000 482.8165 482.8165 0.0000 762.0883 792.6658 216000.0000 762.0883 792.6658
TCL: Setting parameter firstTimeStep to 0
TCL: Running for 500 steps
ETITLE: TS BOND ANGLE DIHED IMPRP ELECT VDW BOUNDARY MISC KINETIC TOTAL TEMP POTENTIAL TOTAL3 TEMPAVG PRESSURE GPRESSURE VOLUME PRESSAVG GPRESSAVG
ENERGY: 0 87.6171 422.4765 531.7660 16.9213 -739.4980 163.5337 0.0000 0.0000 647.1889 1130.0054 303.0994 482.8165 1124.3084 303.0994 867.8828 869.8770 216000.0000 867.8828 869.8770
TCL: namdcph) Proposal rejected.
TCL: Running for 500 steps without repeating first step
TCL: namdcph) Proposal rejected.
TCL: Running for 500 steps without repeating first step
TCL: namdcph) Proposal rejected.
TCL: Running for 500 steps without repeating first step
TCL: namdcph) Proposal rejected.
TCL: Running for 500 steps without repeating first step
TCL: namdcph) Proposal rejected.
TCL: Running for 500 steps without repeating first step
TCL: namdcph) Proposal rejected.
TCL: Running for 500 steps without repeating first step
TCL: namdcph) Proposal rejected.
TCL: Running for 500 steps without repeating first step
TCL: namdcph) Proposal rejected.
TCL: Running for 500 steps without repeating first step
TCL: namdcph) Proposal rejected.
TCL: Running for 500 steps without repeating first step
ETITLE: TS BOND ANGLE DIHED IMPRP ELECT VDW BOUNDARY MISC KINETIC TOTAL TEMP POTENTIAL TOTAL3 TEMPAVG PRESSURE GPRESSURE VOLUME PRESSAVG GPRESSAVG
ENERGY: 5000 176.6437 480.7470 495.5681 34.2449 -1242.2144 -90.9080 0.0000 0.0000 655.4850 509.5662 306.9847 -145.9187 517.8838 308.5309 132.7884 137.3045 216000.0000 -0.8186 -0.8113
TCL: namdcph) Proposal rejected.
TCL: Running for 500 steps without repeating first step
TCL: namdcph) Proposal rejected.
TCL: Running for 500 steps without repeating first step
TCL: namdcph) Proposal rejected.
TCL: Running for 500 steps without repeating first step
TCL: namdcph) Proposal rejected.
TCL: Running for 500 steps without repeating first step
TCL: namdcph) Proposal rejected.
TCL: Running for 500 steps without repeating first step
TCL: namdcph) Proposal rejected.
TCL: Running for 500 steps without repeating first step
TCL: namdcph) Proposal rejected.
TCL: Running for 500 steps without repeating first step
TCL: namdcph) Proposal rejected.
TCL: Running for 500 steps without repeating first step
TCL: namdcph) Proposal rejected.
TCL: Running for 500 steps without repeating first step
TCL: namdcph) Proposal rejected.
TCL: Running for 500 steps without repeating first step
ETITLE: TS BOND ANGLE DIHED IMPRP ELECT VDW BOUNDARY MISC KINETIC TOTAL TEMP POTENTIAL TOTAL3 TEMPAVG PRESSURE GPRESSURE VOLUME PRESSAVG GPRESSAVG
ENERGY: 10000 167.6265 506.0847 505.7812 33.2874 -1297.2828 -98.4609 0.0000 0.0000 626.4829 443.5190 293.4021 -182.9640 450.3160 302.7505 25.2253 24.8115 216000.0000 -3.3723 -3.3793
TCL: namdcph) Proposal rejected.
TCL: Running for 500 steps without repeating first step
TCL: namdcph) Proposal rejected.
TCL: Running for 500 steps without repeating first step
TCL: namdcph) Proposal rejected.
TCL: Running for 500 steps without repeating first step
TCL: namdcph) Proposal rejected.
TCL: Running for 500 steps without repeating first step
TCL: namdcph) Proposal rejected.
TCL: Running for 500 steps without repeating first step
TCL: namdcph) Proposal rejected.
TCL: Running for 500 steps without repeating first step
TCL: namdcph) Proposal rejected.
TCL: Running for 500 steps without repeating first step
TCL: namdcph) Proposal rejected.
TCL: Running for 500 steps without repeating first step
TCL: namdcph) Proposal rejected.
TCL: Running for 500 steps without repeating first step
TCL: namdcph) Proposal rejected.
TCL: Running for 500 steps without repeating first step
ETITLE: TS BOND ANGLE DIHED IMPRP ELECT VDW BOUNDARY MISC KINETIC TOTAL TEMP POTENTIAL TOTAL3 TEMPAVG PRESSURE GPRESSURE VOLUME PRESSAVG GPRESSAVG
ENERGY: 15000 170.2318 495.1511 524.9003 35.5918 -1291.8027 -94.9494 0.0000 0.0000 626.4688 465.5917 293.3955 -160.8771 472.9920 292.8753 -14.9915 -16.2694 216000.0000 -8.7385 -8.7418
TCL: namdcph) Proposal rejected.
TCL: Running for 500 steps without repeating first step
TCL: namdcph) Proposal rejected.
TCL: Running for 500 steps without repeating first step
TCL: namdcph) Proposal rejected.
TCL: Running for 500 steps without repeating first step
TCL: namdcph) Proposal rejected.
TCL: Running for 500 steps without repeating first step
TCL: namdcph) Proposal rejected.
TCL: Running for 500 steps without repeating first step
TCL: namdcph) Proposal rejected.
TCL: Running for 500 steps without repeating first step
TCL: namdcph) Proposal rejected.
TCL: Running for 500 steps without repeating first step
TCL: namdcph) Proposal rejected.
TCL: Running for 500 steps without repeating first step
TCL: namdcph) Proposal rejected.
TCL: Running for 500 steps without repeating first step
TCL: namdcph) Proposal rejected.
TCL: Running for 500 steps without repeating first step
ETITLE: TS BOND ANGLE DIHED IMPRP ELECT VDW BOUNDARY MISC KINETIC TOTAL TEMP POTENTIAL TOTAL3 TEMPAVG PRESSURE GPRESSURE VOLUME PRESSAVG GPRESSAVG
ENERGY: 20000 159.7869 506.8816 503.1660 36.3578 -1283.4692 -124.7839 0.0000 0.0000 627.6150 425.5542 293.9323 -202.0608 433.0489 293.9320 -17.5544 -15.9164 216000.0000 -1.1617 -1.1664
TCL: namdcph) Proposal rejected.
TCL: Running for 500 steps without repeating first step
TCL: namdcph) Proposal rejected.
TCL: Running for 500 steps without repeating first step
TCL: namdcph) Proposal rejected.
TCL: Running for 500 steps without repeating first step
TCL: namdcph) Proposal rejected.
TCL: Running for 500 steps without repeating first step
TCL: namdcph) Proposal rejected.
TCL: Running for 500 steps without repeating first step
TCL: namdcph) Proposal rejected.
TCL: Running for 500 steps without repeating first step
TCL: namdcph) Proposal rejected.
TCL: Running for 500 steps without repeating first step
TCL: namdcph) Proposal accepted, attemping a switch.
TCL: Setting parameter outputEnergies to 75000
TCL: Setting parameter dcdFreq to 0
TCL: Setting parameter firstTimestep to 0
TCL: Setting parameter alch to on
Info: NONBONDED TABLE R-SQUARED SPACING: 0.0625
Info: NONBONDED TABLE SIZE: 769 POINTS
TCL: Writing to files with basename 9/namdcph.md.
TCL: cphpsfgen) creating new alchemical side chain for PP1:933:LYS
TCL: Reloading molecular structure from file 9/namdcph.sw.psf and pdb file 9/namdcph.sw.pdb
Info: READING EXTRA BONDS FILE 9/namdcph.sw.extrabonds
Info: READ 7 EXTRA BONDS
Info: To read alchdata from file: coordinate pdb file (default)
Info: To read alchflag data from column: 5
Info: LONG-RANGE LJ: APPLYING ANALYTICAL CORRECTIONS TO ENERGY AND PRESSURE
Info: LONG-RANGE LJ: AVERAGE A0 AND B0 COEFFICIENTS 257940 AND 189.542
Info: LONG-RANGE LJ: AVERAGE A1 AND B1 COEFFICIENTS 258542 AND 189.969
Info: STRUCTURE SUMMARY:
Info: 870 ATOMS
Info: 878 BONDS
Info: 1573 ANGLES
Info: 2283 DIHEDRALS
Info: 178 IMPROPERS
Info: 54 CROSSTERMS
Info: 0 EXCLUSIONS
Info: 445 RIGID BONDS
Info: ALCH: 7 ATOMS TO DISAPPEAR IN FINAL STATE
Info: ALCH: 7 ATOMS TO APPEAR IN FINAL STATE
Info: ALCH: 1 ANGLES LINKING INITIAL AND FINAL ATOMS DELETED
Info: ALCH: 6 DIHEDRALS LINKING INITIAL AND FINAL ATOMS DELETED
Info: 2165 DEGREES OF FREEDOM
Info: 425 HYDROGEN GROUPS
Info: 4 ATOMS IN LARGEST HYDROGEN GROUP
Info: 425 MIGRATION GROUPS
Info: 4 ATOMS IN LARGEST MIGRATION GROUP
Info: TOTAL MASS = 6053.88 amu
Info: TOTAL CHARGE = 2 e
Info: MASS DENSITY = 0.0465414 g/cm^3
Info: ATOM DENSITY = 0.00402778 atoms/A^3
Info: ADDED 4722 IMPLICIT EXCLUSIONS
Info: NONBONDED TABLE R-SQUARED SPACING: 0.0625
Info: NONBONDED TABLE SIZE: 769 POINTS
TCL: Reinitializing atom data from files with basename 9/namdcph.sw
Info: REMOVING COM VELOCITY 0.166515 0.0126018 0.232051
TCL: Running for 75000 steps
ETITLE: TS BOND ANGLE DIHED IMPRP ELECT VDW BOUNDARY MISC KINETIC TOTAL TEMP POTENTIAL TOTAL3 TEMPAVG PRESSURE GPRESSURE VOLUME PRESSAVG GPRESSAVG
ENERGY: 0 159.7838 513.1670 511.8802 42.4109 -1270.5766 -129.2318 0.0000 0.0000 665.3873 492.8208 309.3193 -172.5665 500.7353 297.3420 110.4024 109.8743 216000.0000 -8.0569 -8.0502
ENERGY: 75000 164.6461 481.6106 501.4710 34.1111 -1214.5310 -124.0578 0.0000 0.0000 620.4586 463.7085 288.4332 -156.7501 472.3713 296.4507 -41.1612 -41.1788 216000.0000 -4.7588 -4.7593
TCL: Setting parameter outputEnergies to 5000
TCL: Setting parameter dcdFreq to 5000
TCL: namdcph) PP1:933:LYS:P:3 WorkCorr   -42.7273 CorrWork    70.2674
TCL: Setting parameter outputEnergies to 5000
TCL: Setting parameter dcdFreq to 5000
TCL: Setting parameter firstTimestep to 23500
TCL: namdcph) Switch rejected!
TCL: Setting parameter alch to off
Info: NONBONDED TABLE R-SQUARED SPACING: 0.0625
Info: NONBONDED TABLE SIZE: 769 POINTS
TCL: namdcph) clearing extraBondsFile 9/namdcph.sw.extrabonds
TCL: Reloading molecular structure from file 9/namdcph.md.psf and pdb file 9/namdcph.md.pdb
Info: READING EXTRA BONDS FILE 9/namdcph.sw.extrabonds
Info: LONG-RANGE LJ: APPLYING ANALYTICAL CORRECTIONS TO ENERGY AND PRESSURE
Info: LONG-RANGE LJ: AVERAGE A AND B COEFFICIENTS 257940 AND 189.542
Info: STRUCTURE SUMMARY:
Info: 863 ATOMS
Info: 864 BONDS
Info: 1559 ANGLES
Info: 2262 DIHEDRALS
Info: 177 IMPROPERS
Info: 54 CROSSTERMS
Info: 0 EXCLUSIONS
Info: 440 RIGID BONDS
Info: 2149 DEGREES OF FREEDOM
Info: 423 HYDROGEN GROUPS
Info: 4 ATOMS IN LARGEST HYDROGEN GROUP
Info: 423 MIGRATION GROUPS
Info: 4 ATOMS IN LARGEST MIGRATION GROUP
Info: TOTAL MASS = 6022.82 amu
Info: TOTAL CHARGE = 2 e
Info: MASS DENSITY = 0.0463026 g/cm^3
Info: ATOM DENSITY = 0.00399537 atoms/A^3
Info: ADDED 4679 IMPLICIT EXCLUSIONS
Info: NONBONDED TABLE R-SQUARED SPACING: 0.0625
Info: NONBONDED TABLE SIZE: 769 POINTS
TCL: Reinitializing atom data from files with basename 9/namdcph.md
Info: REMOVING COM VELOCITY 0.18239 0.0151509 0.236799
TCL: Running for 500 steps
TCL: namdcph) Proposal rejected.
TCL: Running for 500 steps without repeating first step
TCL: namdcph) Proposal rejected.
TCL: Running for 500 steps without repeating first step
ETITLE: TS BOND ANGLE DIHED IMPRP ELECT VDW BOUNDARY MISC KINETIC TOTAL TEMP POTENTIAL TOTAL3 TEMPAVG PRESSURE GPRESSURE VOLUME PRESSAVG GPRESSAVG
ENERGY: 25000 156.0092 516.3171 499.2865 33.6805 -1304.3297 -103.6900 0.0000 0.0000 611.4659 408.7395 286.3691 -202.7264 416.0004 300.8187 76.2161 77.4517 216000.0000 -4.5710 -4.5800
TCL: namdcph) Proposal rejected.
TCL: Running for 500 steps without repeating first step
TCL: namdcph) Proposal rejected.
TCL: Running for 500 steps without repeating first step
TCL: namdcph) Proposal rejected.
TCL: Running for 500 steps without repeating first step
TCL: namdcph) Proposal rejected.
TCL: Running for 500 steps without repeating first step
TCL: namdcph) Proposal rejected.
TCL: Running for 500 steps without repeating first step
TCL: namdcph) Proposal rejected.
TCL: Running for 500 steps without repeating first step
TCL: namdcph) Proposal rejected.
TCL: Running for 500 steps without repeating first step
TCL: namdcph) Proposal rejected.
TCL: Running for 500 steps without repeating first step
TCL: namdcph) Proposal rejected.
TCL: Running for 500 steps without repeating first step
TCL: namdcph) Proposal rejected.
TCL: Running for 500 steps without repeating first step
ETITLE: TS BOND ANGLE DIHED IMPRP ELECT VDW BOUNDARY MISC KINETIC TOTAL TEMP POTENTIAL TOTAL3 TEMPAVG PRESSURE GPRESSURE VOLUME PRESSAVG GPRESSAVG
ENERGY: 30000 180.5740 506.3881 505.4678 31.4249 -1327.8415 -107.9918 0.0000 0.0000 649.7688 437.7903 304.3076 -211.9784 445.6785 296.4999 -134.8736 -133.5548 216000.0000 -2.7807 -2.7811
TCL: namdcph) Proposal rejected.
TCL: Running for 500 steps without repeating first step
TCL: namdcph) Proposal rejected.
TCL: Running for 500 steps without repeating first step
TCL: namdcph) Proposal rejected.
TCL: Running for 500 steps without repeating first step
TCL: namdcph) Proposal rejected.
TCL: Running for 500 steps without repeating first step
TCL: namdcph) Proposal rejected.
TCL: Running for 500 steps without repeating first step
TCL: namdcph) Proposal rejected.
TCL: Running for 500 steps without repeating first step
TCL: namdcph) Proposal rejected.
TCL: Running for 500 steps without repeating first step
TCL: namdcph) Proposal rejected.
TCL: Running for 500 steps without repeating first step
TCL: namdcph) Proposal rejected.
TCL: Running for 500 steps without repeating first step
TCL: namdcph) Proposal rejected.
TCL: Running for 500 steps without repeating first step
ETITLE: TS BOND ANGLE DIHED IMPRP ELECT VDW BOUNDARY MISC KINETIC TOTAL TEMP POTENTIAL TOTAL3 TEMPAVG PRESSURE GPRESSURE VOLUME PRESSAVG GPRESSAVG
ENERGY: 35000 161.2800 489.2978 498.2545 33.9983 -1292.7546 -85.3954 0.0000 0.0000 623.5652 428.2457 292.0356 -195.3194 434.4497 294.4469 37.1412 39.5798 216000.0000 -1.6038 -1.6029
TCL: namdcph) Proposal rejected.
TCL: Running for 500 steps without repeating first step
TCL: namdcph) Proposal rejected.
TCL: Running for 500 steps without repeating first step
TCL: namdcph) Proposal rejected.
TCL: Running for 500 steps without repeating first step
TCL: namdcph) Proposal rejected.
TCL: Running for 500 steps without repeating first step
TCL: namdcph) Proposal rejected.
TCL: Running for 500 steps without repeating first step
TCL: namdcph) Proposal rejected.
TCL: Running for 500 steps without repeating first step
TCL: namdcph) Proposal rejected.
TCL: Running for 500 steps without repeating first step
TCL: namdcph) Proposal rejected.
TCL: Running for 500 steps without repeating first step
TCL: namdcph) Proposal rejected.
TCL: Running for 500 steps without repeating first step
TCL: namdcph) Proposal rejected.
TCL: Running for 500 steps without repeating first step
ETITLE: TS BOND ANGLE DIHED IMPRP ELECT VDW BOUNDARY MISC KINETIC TOTAL TEMP POTENTIAL TOTAL3 TEMPAVG PRESSURE GPRESSURE VOLUME PRESSAVG GPRESSAVG
ENERGY: 40000 158.0814 505.1967 505.4654 34.3905 -1309.6813 -104.2704 0.0000 0.0000 657.1891 446.3714 307.7828 -210.8177 454.4078 298.8727 15.9040 17.3832 216000.0000 -1.4415 -1.4392
TCL: namdcph) Proposal rejected.
TCL: Running for 500 steps without repeating first step
TCL: namdcph) Proposal rejected.
TCL: Running for 500 steps without repeating first step
TCL: namdcph) Proposal rejected.
TCL: Running for 500 steps without repeating first step
TCL: namdcph) Proposal rejected.
TCL: Running for 500 steps without repeating first step
TCL: namdcph) Proposal rejected.
TCL: Running for 500 steps without repeating first step
TCL: namdcph) Proposal rejected.
TCL: Running for 500 steps without repeating first step
TCL: namdcph) Proposal rejected.
TCL: Running for 500 steps without repeating first step
TCL: namdcph) Proposal rejected.
TCL: Running for 500 steps without repeating first step
TCL: namdcph) Proposal rejected.
TCL: Running for 500 steps without repeating first step
TCL: namdcph) Proposal rejected.
TCL: Running for 500 steps without repeating first step
ETITLE: TS BOND ANGLE DIHED IMPRP ELECT VDW BOUNDARY MISC KINETIC TOTAL TEMP POTENTIAL TOTAL3 TEMPAVG PRESSURE GPRESSURE VOLUME PRESSAVG GPRESSAVG
ENERGY: 45000 153.8650 546.0161 498.7215 40.2602 -1315.6919 -110.5512 0.0000 0.0000 630.3137 442.9334 295.1962 -187.3802 450.6367 301.2970 14.2268 17.4945 216000.0000 1.1040 1.0974
TCL: namdcph) Proposal rejected.
TCL: Running for 500 steps without repeating first step
TCL: namdcph) Proposal rejected.
TCL: Running for 500 steps without repeating first step
TCL: namdcph) Proposal rejected.
TCL: Running for 500 steps without repeating first step
TCL: namdcph) Proposal rejected.
TCL: Running for 500 steps without repeating first step
TCL: namdcph) Proposal rejected.
TCL: Running for 500 steps without repeating first step
TCL: namdcph) Proposal rejected.
TCL: Running for 500 steps without repeating first step
TCL: namdcph) Proposal rejected.
TCL: Running for 500 steps without repeating first step
TCL: namdcph) Proposal rejected.
TCL: Running for 500 steps without repeating first step
TCL: namdcph) Proposal rejected.
TCL: Running for 500 steps without repeating first step
TCL: namdcph) Proposal rejected.
TCL: Running for 500 steps without repeating first step
ETITLE: TS BOND ANGLE DIHED IMPRP ELECT VDW BOUNDARY MISC KINETIC TOTAL TEMP POTENTIAL TOTAL3 TEMPAVG PRESSURE GPRESSURE VOLUME PRESSAVG GPRESSAVG
ENERGY: 50000 161.7401 495.6495 493.3738 33.2421 -1305.2467 -79.1962 0.0000 0.0000 615.7611 415.3237 288.3807 -200.4374 422.5023 297.2737 155.5933 157.4584 216000.0000 0.7517 0.7603
TCL: namdcph) Proposal rejected.
TCL: Running for 500 steps without repeating first step
TCL: namdcph) Proposal rejected.
TCL: Running for 500 steps without repeating first step
TCL: namdcph) Proposal rejected.
TCL: Running for 500 steps without repeating first step
TCL: namdcph) Proposal rejected.
TCL: Running for 500 steps without repeating first step
TCL: namdcph) Proposal rejected.
TCL: Running for 500 steps without repeating first step
TCL: namdcph) Proposal rejected.
TCL: Running for 500 steps without repeating first step
TCL: namdcph) Proposal rejected.
TCL: Running for 500 steps without repeating first step
TCL: namdcph) Proposal rejected.
TCL: Running for 500 steps without repeating first step
TCL: namdcph) Proposal rejected.
TCL: Running for 500 steps without repeating first step
TCL: namdcph) Proposal rejected.
TCL: Running for 500 steps without repeating first step
ETITLE: TS BOND ANGLE DIHED IMPRP ELECT VDW BOUNDARY MISC KINETIC TOTAL TEMP POTENTIAL TOTAL3 TEMPAVG PRESSURE GPRESSURE VOLUME PRESSAVG GPRESSAVG
ENERGY: 55000 148.7647 492.6866 495.8451 42.4917 -1296.3024 -95.3489 0.0000 0.0000 661.2206 449.3574 309.6709 -211.8632 458.7138 299.5857 38.7060 39.8449 216000.0000 -2.1029 -2.1047
TCL: namdcph) Proposal rejected.
TCL: Running for 500 steps without repeating first step
TCL: namdcph) Proposal rejected.
TCL: Running for 500 steps without repeating first step
TCL: namdcph) Proposal rejected.
TCL: Running for 500 steps without repeating first step
TCL: namdcph) Proposal rejected.
TCL: Running for 500 steps without repeating first step
TCL: namdcph) Proposal rejected.
TCL: Running for 500 steps without repeating first step
TCL: namdcph) Proposal rejected.
TCL: Running for 500 steps without repeating first step
TCL: namdcph) Proposal rejected.
TCL: Running for 500 steps without repeating first step
TCL: namdcph) Proposal rejected.
TCL: Running for 500 steps without repeating first step
TCL: namdcph) Proposal rejected.
TCL: Running for 500 steps without repeating first step
TCL: namdcph) Proposal rejected.
TCL: Running for 500 steps without repeating first step
ETITLE: TS BOND ANGLE DIHED IMPRP ELECT VDW BOUNDARY MISC KINETIC TOTAL TEMP POTENTIAL TOTAL3 TEMPAVG PRESSURE GPRESSURE VOLUME PRESSAVG GPRESSAVG
ENERGY: 60000 153.3874 500.9287 495.0444 31.5092 -1293.7182 -129.4350 0.0000 0.0000 652.0789 409.7955 305.3895 -242.2834 417.5345 296.8125 -57.3633 -56.9710 216000.0000 -5.5266 -5.5330
TCL: namdcph) Proposal rejected.
TCL: Running for 500 steps without repeating first step
TCL: namdcph) Proposal rejected.
TCL: Running for 500 steps without repeating first step
TCL: namdcph) Proposal rejected.
TCL: Running for 500 steps without repeating first step
TCL: namdcph) Proposal rejected.
TCL: Running for 500 steps without repeating first step
TCL: namdcph) Proposal rejected.
TCL: Running for 500 steps without repeating first step
TCL: namdcph) Proposal rejected.
TCL: Running for 500 steps without repeating first step
TCL: namdcph) Proposal rejected.
TCL: Running for 500 steps without repeating first step
TCL: namdcph) Proposal accepted, attemping a switch.
TCL: Setting parameter outputEnergies to 75000
TCL: Setting parameter dcdFreq to 0
TCL: Setting parameter firstTimestep to 0
TCL: Setting parameter alch to on
Info: NONBONDED TABLE R-SQUARED SPACING: 0.0625
Info: NONBONDED TABLE SIZE: 769 POINTS
TCL: Writing to files with basename 9/namdcph.md.
TCL: cphpsfgen) creating new alchemical side chain for PP1:933:LYS
TCL: Reloading molecular structure from file 9/namdcph.sw.psf and pdb file 9/namdcph.sw.pdb
Info: READING EXTRA BONDS FILE 9/namdcph.sw.extrabonds
Info: READ 7 EXTRA BONDS
Info: To read alchdata from file: coordinate pdb file (default)
Info: To read alchflag data from column: 5
Info: LONG-RANGE LJ: APPLYING ANALYTICAL CORRECTIONS TO ENERGY AND PRESSURE
Info: LONG-RANGE LJ: AVERAGE A0 AND B0 COEFFICIENTS 257940 AND 189.542
Info: LONG-RANGE LJ: AVERAGE A1 AND B1 COEFFICIENTS 258542 AND 189.969
Info: STRUCTURE SUMMARY:
Info: 870 ATOMS
Info: 878 BONDS
Info: 1573 ANGLES
Info: 2283 DIHEDRALS
Info: 178 IMPROPERS
Info: 54 CROSSTERMS
Info: 0 EXCLUSIONS
Info: 445 RIGID BONDS
Info: ALCH: 7 ATOMS TO DISAPPEAR IN FINAL STATE
Info: ALCH: 7 ATOMS TO APPEAR IN FINAL STATE
Info: ALCH: 1 ANGLES LINKING INITIAL AND FINAL ATOMS DELETED
Info: ALCH: 6 DIHEDRALS LINKING INITIAL AND FINAL ATOMS DELETED
Info: 2165 DEGREES OF FREEDOM
Info: 425 HYDROGEN GROUPS
Info: 4 ATOMS IN LARGEST HYDROGEN GROUP
Info: 425 MIGRATION GROUPS
Info: 4 ATOMS IN LARGEST MIGRATION GROUP
Info: TOTAL MASS = 6053.88 amu
Info: TOTAL CHARGE = 2 e
Info: MASS DENSITY = 0.0465414 g/cm^3
Info: ATOM DENSITY = 0.00402778 atoms/A^3
Info: ADDED 4722 IMPLICIT EXCLUSIONS
Info: NONBONDED TABLE R-SQUARED SPACING: 0.0625
Info: NONBONDED TABLE SIZE: 769 POINTS
TCL: Reinitializing atom data from files with basename 9/namdcph.sw
Info: REMOVING COM VELOCITY -0.00153163 0.136181 0.214961
TCL: Running for 75000 steps
ETITLE: TS BOND ANGLE DIHED IMPRP ELECT VDW BOUNDARY MISC KINETIC TOTAL TEMP POTENTIAL TOTAL3 TEMPAVG PRESSURE GPRESSURE VOLUME PRESSAVG GPRESSAVG
ENERGY: 0 170.2389 543.1059 510.2217 40.0868 -1293.3123 -129.9976 0.0000 0.0000 664.8166 505.1599 309.0540 -159.6566 513.1893 296.7234 -71.3343 -71.2093 216000.0000 -3.7920 -3.7901
ENERGY: 75000 152.6119 503.6752 487.9722 42.9957 -1209.2048 -116.4693 0.0000 0.0000 602.9665 464.5474 280.3017 -138.4192 472.2866 298.5802 -35.0134 -32.7686 216000.0000 -9.1597 -9.1598
TCL: Setting parameter outputEnergies to 5000
TCL: Setting parameter dcdFreq to 5000
TCL: namdcph) PP1:933:LYS:P:1 WorkCorr   -42.7273 CorrWork    68.6835
TCL: Setting parameter outputEnergies to 5000
TCL: Setting parameter dcdFreq to 5000
TCL: Setting parameter firstTimestep to 63500
TCL: namdcph) Switch rejected!
TCL: Setting parameter alch to off
Info: NONBONDED TABLE R-SQUARED SPACING: 0.0625
Info: NONBONDED TABLE SIZE: 769 POINTS
TCL: namdcph) clearing extraBondsFile 9/namdcph.sw.extrabonds
TCL: Reloading molecular structure from file 9/namdcph.md.psf and pdb file 9/namdcph.md.pdb
Info: READING EXTRA BONDS FILE 9/namdcph.sw.extrabonds
Info: LONG-RANGE LJ: APPLYING ANALYTICAL CORRECTIONS TO ENERGY AND PRESSURE
Info: LONG-RANGE LJ: AVERAGE A AND B COEFFICIENTS 257940 AND 189.542
Info: STRUCTURE SUMMARY:
Info: 863 ATOMS
Info: 864 BONDS
Info: 1559 ANGLES
Info: 2262 DIHEDRALS
Info: 177 IMPROPERS
Info: 54 CROSSTERMS
Info: 0 EXCLUSIONS
Info: 440 RIGID BONDS
Info: 2149 DEGREES OF FREEDOM
Info: 423 HYDROGEN GROUPS
Info: 4 ATOMS IN LARGEST HYDROGEN GROUP
Info: 423 MIGRATION GROUPS
Info: 4 ATOMS IN LARGEST MIGRATION GROUP
Info: TOTAL MASS = 6022.82 amu
Info: TOTAL CHARGE = 2 e
Info: MASS DENSITY = 0.0463026 g/cm^3
Info: ATOM DENSITY = 0.00399537 atoms/A^3
Info: ADDED 4679 IMPLICIT EXCLUSIONS
Info: NONBONDED TABLE R-SQUARED SPACING: 0.0625
Info: NONBONDED TABLE SIZE: 769 POINTS
TCL: Reinitializing atom data from files with basename 9/namdcph.md
Info: REMOVING COM VELOCITY 0.0126847 0.107715 0.219443
TCL: Running for 500 steps
TCL: namdcph) Proposal rejected.
TCL: Running for 500 steps without repeating first step
TCL: namdcph) Proposal rejected.
TCL: Running for 500 steps without repeating first step
ETITLE: TS BOND ANGLE DIHED IMPRP ELECT VDW BOUNDARY MISC KINETIC TOTAL TEMP POTENTIAL TOTAL3 TEMPAVG PRESSURE GPRESSURE VOLUME PRESSAVG GPRESSAVG
ENERGY: 65000 160.7526 513.1319 483.0604 37.6619 -1306.4220 -101.4766 0.0000 0.0000 680.3443 467.0524 318.6271 -213.2919 475.2831 306.4586 101.5066 100.4095 216000.0000 -9.4620 -9.4644
TCL: namdcph) Proposal rejected.
TCL: Running for 500 steps without repeating first step
TCL: namdcph) Proposal rejected.
TCL: Running for 500 steps without repeating first step
TCL: namdcph) Proposal rejected.
TCL: Running for 500 steps without repeating first step
TCL: namdcph) Proposal rejected.
TCL: Running for 500 steps without repeating first step
TCL: namdcph) Proposal rejected.
TCL: Running for 500 steps without repeating first step
TCL: namdcph) Proposal rejected.
TCL: Running for 500 steps without repeating first step
TCL: namdcph) Proposal rejected.
TCL: Running for 500 steps without repeating first step
TCL: namdcph) Proposal rejected.
TCL: Running for 500 steps without repeating first step
TCL: namdcph) Proposal rejected.
TCL: Running for 500 steps without repeating first step
TCL: namdcph) Proposal rejected.
TCL: Running for 500 steps without repeating first step
ETITLE: TS BOND ANGLE DIHED IMPRP ELECT VDW BOUNDARY MISC KINETIC TOTAL TEMP POTENTIAL TOTAL3 TEMPAVG PRESSURE GPRESSURE VOLUME PRESSAVG GPRESSAVG
ENERGY: 70000 159.3305 505.6272 487.8961 32.5998 -1315.1889 -110.3038 0.0000 0.0000 636.9127 396.8736 298.2867 -240.0392 405.8446 300.2575 -127.2996 -125.9578 216000.0000 -5.0704 -5.0611
TCL: namdcph) Proposal rejected.
TCL: Running for 500 steps without repeating first step
TCL: namdcph) Proposal rejected.
TCL: Running for 500 steps without repeating first step
TCL: namdcph) Proposal rejected.
TCL: Running for 500 steps without repeating first step
TCL: namdcph) Proposal rejected.
TCL: Running for 500 steps without repeating first step
TCL: namdcph) Proposal rejected.
TCL: Running for 500 steps without repeating first step
TCL: namdcph) Proposal rejected.
TCL: Running for 500 steps without repeating first step
TCL: namdcph) Proposal rejected.
TCL: Running for 500 steps without repeating first step
TCL: namdcph) Proposal rejected.
TCL: Running for 500 steps without repeating first step
TCL: namdcph) Proposal rejected.
TCL: Running for 500 steps without repeating first step
TCL: namdcph) Proposal accepted, attemping a switch.
TCL: Setting parameter outputEnergies to 75000
TCL: Setting parameter dcdFreq to 0
TCL: Setting parameter firstTimestep to 0
TCL: Setting parameter alch to on
Info: NONBONDED TABLE R-SQUARED SPACING: 0.0625
Info: NONBONDED TABLE SIZE: 769 POINTS
TCL: Writing to files with basename 9/namdcph.md.
TCL: cphpsfgen) creating new alchemical side chain for PP1:921:LYS
TCL: Reloading molecular structure from file 9/namdcph.sw.psf and pdb file 9/namdcph.sw.pdb
Info: READING EXTRA BONDS FILE 9/namdcph.sw.extrabonds
Info: READ 7 EXTRA BONDS
Info: To read alchdata from file: coordinate pdb file (default)
Info: To read alchflag data from column: 5
Info: LONG-RANGE LJ: APPLYING ANALYTICAL CORRECTIONS TO ENERGY AND PRESSURE
Info: LONG-RANGE LJ: AVERAGE A0 AND B0 COEFFICIENTS 257940 AND 189.542
Info: LONG-RANGE LJ: AVERAGE A1 AND B1 COEFFICIENTS 258542 AND 189.969
Info: STRUCTURE SUMMARY:
Info: 870 ATOMS
Info: 878 BONDS
Info: 1573 ANGLES
Info: 2283 DIHEDRALS
Info: 178 IMPROPERS
Info: 54 CROSSTERMS
Info: 0 EXCLUSIONS
Info: 445 RIGID BONDS
Info: ALCH: 7 ATOMS TO DISAPPEAR IN FINAL STATE
Info: ALCH: 7 ATOMS TO APPEAR IN FINAL STATE
Info: ALCH: 1 ANGLES LINKING INITIAL AND FINAL ATOMS DELETED
Info: ALCH: 6 DIHEDRALS LINKING INITIAL AND FINAL ATOMS DELETED
Info: 2165 DEGREES OF FREEDOM
Info: 425 HYDROGEN GROUPS
Info: 4 ATOMS IN LARGEST HYDROGEN GROUP
Info: 425 MIGRATION GROUPS
Info: 4 ATOMS IN LARGEST MIGRATION GROUP
Info: TOTAL MASS = 6053.88 amu
Info: TOTAL CHARGE = 2 e
Info: MASS DENSITY = 0.0465414 g/cm^3
Info: ATOM DENSITY = 0.00402778 atoms/A^3
Info: ADDED 4722 IMPLICIT EXCLUSIONS
Info: NONBONDED TABLE R-SQUARED SPACING: 0.0625
Info: NONBONDED TABLE SIZE: 769 POINTS
TCL: Reinitializing atom data from files with basename 9/namdcph.sw
Info: REMOVING COM VELOCITY 0.406368 -0.155286 0.0413259
TCL: Running for 75000 steps
ETITLE: TS BOND ANGLE DIHED IMPRP ELECT VDW BOUNDARY MISC KINETIC TOTAL TEMP POTENTIAL TOTAL3 TEMPAVG PRESSURE GPRESSURE VOLUME PRESSAVG GPRESSAVG
ENERGY: 0 155.1493 539.9054 496.8199 36.2562 -1304.1092 -124.5453 0.0000 0.0000 624.7014 424.1779 290.4056 -200.5235 430.7521 300.8667 97.7927 98.0367 216000.0000 -9.7450 -9.7274
ENERGY: 75000 178.0336 521.1765 490.1652 36.0939 -1268.3805 -108.2586 0.0000 0.0000 660.0666 508.8966 306.8458 -151.1700 518.6834 299.1935 -45.1586 -45.0639 216000.0000 -10.0017 -10.0016
TCL: Setting parameter outputEnergies to 5000
TCL: Setting parameter dcdFreq to 5000
TCL: namdcph) PP1:921:LYS:P:1 WorkCorr   -42.7954 CorrWork    23.2097
TCL: Setting parameter outputEnergies to 5000
TCL: Setting parameter dcdFreq to 5000
TCL: Setting parameter firstTimestep to 74500
TCL: namdcph) Switch rejected!
TCL: Setting parameter alch to off
Info: NONBONDED TABLE R-SQUARED SPACING: 0.0625
Info: NONBONDED TABLE SIZE: 769 POINTS
TCL: namdcph) clearing extraBondsFile 9/namdcph.sw.extrabonds
TCL: Reloading molecular structure from file 9/namdcph.md.psf and pdb file 9/namdcph.md.pdb
Info: READING EXTRA BONDS FILE 9/namdcph.sw.extrabonds
Info: LONG-RANGE LJ: APPLYING ANALYTICAL CORRECTIONS TO ENERGY AND PRESSURE
Info: LONG-RANGE LJ: AVERAGE A AND B COEFFICIENTS 257940 AND 189.542
Info: STRUCTURE SUMMARY:
Info: 863 ATOMS
Info: 864 BONDS
Info: 1559 ANGLES
Info: 2262 DIHEDRALS
Info: 177 IMPROPERS
Info: 54 CROSSTERMS
Info: 0 EXCLUSIONS
Info: 440 RIGID BONDS
Info: 2149 DEGREES OF FREEDOM
Info: 423 HYDROGEN GROUPS
Info: 4 ATOMS IN LARGEST HYDROGEN GROUP
Info: 423 MIGRATION GROUPS
Info: 4 ATOMS IN LARGEST MIGRATION GROUP
Info: TOTAL MASS = 6022.82 amu
Info: TOTAL CHARGE = 2 e
Info: MASS DENSITY = 0.0463026 g/cm^3
Info: ATOM DENSITY = 0.00399537 atoms/A^3
Info: ADDED 4679 IMPLICIT EXCLUSIONS
Info: NONBONDED TABLE R-SQUARED SPACING: 0.0625
Info: NONBONDED TABLE SIZE: 769 POINTS
TCL: Reinitializing atom data from files with basename 9/namdcph.md
Info: REMOVING COM VELOCITY 0.399721 -0.122956 0.0398468
TCL: Running for 500 steps
ETITLE: TS BOND ANGLE DIHED IMPRP ELECT VDW BOUNDARY MISC KINETIC TOTAL TEMP POTENTIAL TOTAL3 TEMPAVG PRESSURE GPRESSURE VOLUME PRESSAVG GPRESSAVG
ENERGY: 75000 165.5730 483.0471 488.3545 31.9728 -1300.6565 -109.2449 0.0000 0.0000 615.6409 374.6869 288.3244 -240.9541 383.5753 288.7086 -61.4302 -60.6432 216000.0000 -9.3852 -9.4000
TCL: namdcph) Proposal rejected.
TCL: Running for 500 steps without repeating first step
TCL: namdcph) Proposal rejected.
TCL: Running for 500 steps without repeating first step
TCL: namdcph) Proposal rejected.
TCL: Running for 500 steps without repeating first step
TCL: namdcph) Proposal rejected.
TCL: Running for 500 steps without repeating first step
TCL: namdcph) Proposal rejected.
TCL: Running for 500 steps without repeating first step
TCL: namdcph) Proposal rejected.
TCL: Running for 500 steps without repeating first step
TCL: namdcph) Proposal rejected.
TCL: Running for 500 steps without repeating first step
TCL: namdcph) Proposal rejected.
TCL: Running for 500 steps without repeating first step
TCL: namdcph) Proposal rejected.
TCL: Running for 500 steps without repeating first step
TCL: namdcph) Proposal rejected.
TCL: Running for 500 steps without repeating first step
ETITLE: TS BOND ANGLE DIHED IMPRP ELECT VDW BOUNDARY MISC KINETIC TOTAL TEMP POTENTIAL TOTAL3 TEMPAVG PRESSURE GPRESSURE VOLUME PRESSAVG GPRESSAVG
ENERGY: 80000 153.3801 498.5480 486.5471 38.5910 -1317.3418 -93.6813 0.0000 0.0000 586.5532 352.5964 274.7017 -233.9568 358.6897 297.5743 -2.5615 -2.6076 216000.0000 -6.7376 -6.7291
TCL: namdcph) Proposal rejected.
TCL: Running for 500 steps without repeating first step
TCL: namdcph) Proposal rejected.
TCL: Running for 500 steps without repeating first step
TCL: namdcph) Proposal rejected.
TCL: Running for 500 steps without repeating first step
TCL: namdcph) Proposal rejected.
TCL: Running for 500 steps without repeating first step
TCL: namdcph) Proposal rejected.
TCL: Running for 500 steps without repeating first step
TCL: namdcph) Proposal rejected.
TCL: Running for 500 steps without repeating first step
TCL: namdcph) Proposal rejected.
TCL: Running for 500 steps without repeating first step
TCL: namdcph) Proposal accepted, attemping a switch.
TCL: Setting parameter outputEnergies to 75000
TCL: Setting parameter dcdFreq to 0
TCL: Setting parameter firstTimestep to 0
TCL: Setting parameter alch to on
Info: NONBONDED TABLE R-SQUARED SPACING: 0.0625
Info: NONBONDED TABLE SIZE: 769 POINTS
TCL: Writing to files with basename 9/namdcph.md.
TCL: cphpsfgen) creating new alchemical side chain for PP1:921:LYS
TCL: Reloading molecular structure from file 9/namdcph.sw.psf and pdb file 9/namdcph.sw.pdb
Info: READING EXTRA BONDS FILE 9/namdcph.sw.extrabonds
Info: READ 7 EXTRA BONDS
Info: To read alchdata from file: coordinate pdb file (default)
Info: To read alchflag data from column: 5
Info: LONG-RANGE LJ: APPLYING ANALYTICAL CORRECTIONS TO ENERGY AND PRESSURE
Info: LONG-RANGE LJ: AVERAGE A0 AND B0 COEFFICIENTS 257940 AND 189.542
Info: LONG-RANGE LJ: AVERAGE A1 AND B1 COEFFICIENTS 258542 AND 189.969
Info: STRUCTURE SUMMARY:
Info: 870 ATOMS
Info: 878 BONDS
Info: 1573 ANGLES
Info: 2283 DIHEDRALS
Info: 178 IMPROPERS
Info: 54 CROSSTERMS
Info: 0 EXCLUSIONS
Info: 445 RIGID BONDS
Info: ALCH: 7 ATOMS TO DISAPPEAR IN FINAL STATE
Info: ALCH: 7 ATOMS TO APPEAR IN FINAL STATE
Info: ALCH: 1 ANGLES LINKING INITIAL AND FINAL ATOMS DELETED
Info: ALCH: 6 DIHEDRALS LINKING INITIAL AND FINAL ATOMS DELETED
Info: 2165 DEGREES OF FREEDOM
Info: 425 HYDROGEN GROUPS
Info: 4 ATOMS IN LARGEST HYDROGEN GROUP
Info: 425 MIGRATION GROUPS
Info: 4 ATOMS IN LARGEST MIGRATION GROUP
Info: TOTAL MASS = 6053.88 amu
Info: TOTAL CHARGE = 2 e
Info: MASS DENSITY = 0.0465414 g/cm^3
Info: ATOM DENSITY = 0.00402778 atoms/A^3
Info: ADDED 4722 IMPLICIT EXCLUSIONS
Info: NONBONDED TABLE R-SQUARED SPACING: 0.0625
Info: NONBONDED TABLE SIZE: 769 POINTS
TCL: Reinitializing atom data from files with basename 9/namdcph.sw
Info: REMOVING COM VELOCITY 0.277534 -0.10364 -0.126273
TCL: Running for 75000 steps
ETITLE: TS BOND ANGLE DIHED IMPRP ELECT VDW BOUNDARY MISC KINETIC TOTAL TEMP POTENTIAL TOTAL3 TEMPAVG PRESSURE GPRESSURE VOLUME PRESSAVG GPRESSAVG
ENERGY: 0 165.4732 502.6287 486.3683 34.1471 -1302.6300 -120.2999 0.0000 0.0000 615.6888 381.3762 286.2159 -234.3125 387.4421 293.2214 -29.6982 -28.8193 216000.0000 -17.8109 -17.8124
ENERGY: 75000 180.8433 524.2492 501.8641 37.7569 -1275.0923 -105.1283 0.0000 0.0000 641.7073 506.2002 298.3111 -135.5071 514.2679 298.9818 -64.5484 -65.3572 216000.0000 -10.1660 -10.1704
TCL: Setting parameter outputEnergies to 5000
TCL: Setting parameter dcdFreq to 5000
TCL: namdcph) PP1:921:LYS:P:2 WorkCorr   -42.7954 CorrWork    23.7374
TCL: Setting parameter outputEnergies to 5000
TCL: Setting parameter dcdFreq to 5000
TCL: Setting parameter firstTimestep to 83500
TCL: namdcph) Switch rejected!
TCL: Setting parameter alch to off
Info: NONBONDED TABLE R-SQUARED SPACING: 0.0625
Info: NONBONDED TABLE SIZE: 769 POINTS
TCL: namdcph) clearing extraBondsFile 9/namdcph.sw.extrabonds
TCL: Reloading molecular structure from file 9/namdcph.md.psf and pdb file 9/namdcph.md.pdb
Info: READING EXTRA BONDS FILE 9/namdcph.sw.extrabonds
Info: LONG-RANGE LJ: APPLYING ANALYTICAL CORRECTIONS TO ENERGY AND PRESSURE
Info: LONG-RANGE LJ: AVERAGE A AND B COEFFICIENTS 257940 AND 189.542
Info: STRUCTURE SUMMARY:
Info: 863 ATOMS
Info: 864 BONDS
Info: 1559 ANGLES
Info: 2262 DIHEDRALS
Info: 177 IMPROPERS
Info: 54 CROSSTERMS
Info: 0 EXCLUSIONS
Info: 440 RIGID BONDS
Info: 2149 DEGREES OF FREEDOM
Info: 423 HYDROGEN GROUPS
Info: 4 ATOMS IN LARGEST HYDROGEN GROUP
Info: 423 MIGRATION GROUPS
Info: 4 ATOMS IN LARGEST MIGRATION GROUP
Info: TOTAL MASS = 6022.82 amu
Info: TOTAL CHARGE = 2 e
Info: MASS DENSITY = 0.0463026 g/cm^3
Info: ATOM DENSITY = 0.00399537 atoms/A^3
Info: ADDED 4679 IMPLICIT EXCLUSIONS
Info: NONBONDED TABLE R-SQUARED SPACING: 0.0625
Info: NONBONDED TABLE SIZE: 769 POINTS
TCL: Reinitializing atom data from files with basename 9/namdcph.md
Info: REMOVING COM VELOCITY 0.273623 -0.10361 -0.127214
TCL: Running for 500 steps
TCL: namdcph) Proposal accepted, attemping a switch.
TCL: Setting parameter outputEnergies to 75000
TCL: Setting parameter dcdFreq to 0
TCL: Setting parameter firstTimestep to 0
TCL: Setting parameter alch to on
Info: NONBONDED TABLE R-SQUARED SPACING: 0.0625
Info: NONBONDED TABLE SIZE: 769 POINTS
TCL: Writing to files with basename 9/namdcph.md.
TCL: cphpsfgen) creating new alchemical side chain for PP1:947:LYS
TCL: Reloading molecular structure from file 9/namdcph.sw.psf and pdb file 9/namdcph.sw.pdb
Info: READING EXTRA BONDS FILE 9/namdcph.sw.extrabonds
Info: READ 7 EXTRA BONDS
Info: To read alchdata from file: coordinate pdb file (default)
Info: To read alchflag data from column: 5
Info: LONG-RANGE LJ: APPLYING ANALYTICAL CORRECTIONS TO ENERGY AND PRESSURE
Info: LONG-RANGE LJ: AVERAGE A0 AND B0 COEFFICIENTS 257940 AND 189.542
Info: LONG-RANGE LJ: AVERAGE A1 AND B1 COEFFICIENTS 258542 AND 189.969
Info: STRUCTURE SUMMARY:
Info: 870 ATOMS
Info: 878 BONDS
Info: 1573 ANGLES
Info: 2283 DIHEDRALS
Info: 178 IMPROPERS
Info: 54 CROSSTERMS
Info: 0 EXCLUSIONS
Info: 445 RIGID BONDS
Info: ALCH: 7 ATOMS TO DISAPPEAR IN FINAL STATE
Info: ALCH: 7 ATOMS TO APPEAR IN FINAL STATE
Info: ALCH: 1 ANGLES LINKING INITIAL AND FINAL ATOMS DELETED
Info: ALCH: 6 DIHEDRALS LINKING INITIAL AND FINAL ATOMS DELETED
Info: 2165 DEGREES OF FREEDOM
Info: 425 HYDROGEN GROUPS
Info: 4 ATOMS IN LARGEST HYDROGEN GROUP
Info: 425 MIGRATION GROUPS
Info: 4 ATOMS IN LARGEST MIGRATION GROUP
Info: TOTAL MASS = 6053.88 amu
Info: TOTAL CHARGE = 2 e
Info: MASS DENSITY = 0.0465414 g/cm^3
Info: ATOM DENSITY = 0.00402778 atoms/A^3
Info: ADDED 4722 IMPLICIT EXCLUSIONS
Info: NONBONDED TABLE R-SQUARED SPACING: 0.0625
Info: NONBONDED TABLE SIZE: 769 POINTS
TCL: Reinitializing atom data from files with basename 9/namdcph.sw
Info: REMOVING COM VELOCITY -0.00943763 -0.228784 -0.0120814
TCL: Running for 75000 steps
ETITLE: TS BOND ANGLE DIHED IMPRP ELECT VDW BOUNDARY MISC KINETIC TOTAL TEMP POTENTIAL TOTAL3 TEMPAVG PRESSURE GPRESSURE VOLUME PRESSAVG GPRESSAVG
ENERGY: 0 179.7457 528.9504 484.1034 34.5867 -1311.8833 -129.3141 0.0000 0.0000 610.1798 396.3685 283.6549 -213.8113 403.1205 288.7924 -118.7119 -116.4969 216000.0000 -12.3164 -12.2872
ENERGY: 75000 164.0531 540.1210 502.3010 42.9684 -1280.7417 -105.4653 0.0000 0.0000 623.9190 487.1554 290.0419 -136.7636 493.7644 299.3489 -125.0792 -125.7695 216000.0000 -9.0049 -9.0033
TCL: Setting parameter outputEnergies to 5000
TCL: Setting parameter dcdFreq to 5000
TCL: namdcph) PP1:947:LYS:P:3 WorkCorr   -42.7954 CorrWork    27.1845
TCL: Setting parameter outputEnergies to 5000
TCL: Setting parameter dcdFreq to 5000
TCL: Setting parameter firstTimestep to 84000
TCL: namdcph) Switch rejected!
TCL: Setting parameter alch to off
Info: NONBONDED TABLE R-SQUARED SPACING: 0.0625
Info: NONBONDED TABLE SIZE: 769 POINTS
TCL: namdcph) clearing extraBondsFile 9/namdcph.sw.extrabonds
TCL: Reloading molecular structure from file 9/namdcph.md.psf and pdb file 9/namdcph.md.pdb
Info: READING EXTRA BONDS FILE 9/namdcph.sw.extrabonds
Info: LONG-RANGE LJ: APPLYING ANALYTICAL CORRECTIONS TO ENERGY AND PRESSURE
Info: LONG-RANGE LJ: AVERAGE A AND B COEFFICIENTS 257940 AND 189.542
Info: STRUCTURE SUMMARY:
Info: 863 ATOMS
Info: 864 BONDS
Info: 1559 ANGLES
Info: 2262 DIHEDRALS
Info: 177 IMPROPERS
Info: 54 CROSSTERMS
Info: 0 EXCLUSIONS
Info: 440 RIGID BONDS
Info: 2149 DEGREES OF FREEDOM
Info: 423 HYDROGEN GROUPS
Info: 4 ATOMS IN LARGEST HYDROGEN GROUP
Info: 423 MIGRATION GROUPS
Info: 4 ATOMS IN LARGEST MIGRATION GROUP
Info: TOTAL MASS = 6022.82 amu
Info: TOTAL CHARGE = 2 e
Info: MASS DENSITY = 0.0463026 g/cm^3
Info: ATOM DENSITY = 0.00399537 atoms/A^3
Info: ADDED 4679 IMPLICIT EXCLUSIONS
Info: NONBONDED TABLE R-SQUARED SPACING: 0.0625
Info: NONBONDED TABLE SIZE: 769 POINTS
TCL: Reinitializing atom data from files with basename 9/namdcph.md
Info: REMOVING COM VELOCITY -0.0129282 -0.232832 0.00890965
TCL: Running for 500 steps
TCL: namdcph) Proposal rejected.
TCL: Running for 500 steps without repeating first step
ETITLE: TS BOND ANGLE DIHED IMPRP ELECT VDW BOUNDARY MISC KINETIC TOTAL TEMP POTENTIAL TOTAL3 TEMPAVG PRESSURE GPRESSURE VOLUME PRESSAVG GPRESSAVG
ENERGY: 85000 170.1712 534.7300 510.1758 33.5851 -1289.1932 -141.2514 0.0000 0.0000 638.2455 456.4630 298.9109 -181.7825 464.5881 298.9012 -84.4033 -81.2620 216000.0000 -13.4782 -13.4943
TCL: namdcph) Proposal rejected.
TCL: Running for 500 steps without repeating first step
TCL: namdcph) Proposal rejected.
TCL: Running for 500 steps without repeating first step
TCL: namdcph) Proposal rejected.
TCL: Running for 500 steps without repeating first step
TCL: namdcph) Proposal rejected.
TCL: Running for 500 steps without repeating first step
TCL: namdcph) Proposal rejected.
TCL: Running for 500 steps without repeating first step
TCL: namdcph) Proposal rejected.
TCL: Running for 500 steps without repeating first step
TCL: namdcph) Proposal rejected.
TCL: Running for 500 steps without repeating first step
TCL: namdcph) Proposal accepted, attemping a switch.
TCL: Setting parameter outputEnergies to 75000
TCL: Setting parameter dcdFreq to 0
TCL: Setting parameter firstTimestep to 0
TCL: Setting parameter alch to on
Info: NONBONDED TABLE R-SQUARED SPACING: 0.0625
Info: NONBONDED TABLE SIZE: 769 POINTS
TCL: Writing to files with basename 9/namdcph.md.
TCL: cphpsfgen) creating new alchemical side chain for PP1:933:LYS
TCL: Reloading molecular structure from file 9/namdcph.sw.psf and pdb file 9/namdcph.sw.pdb
Info: READING EXTRA BONDS FILE 9/namdcph.sw.extrabonds
Info: READ 7 EXTRA BONDS
Info: To read alchdata from file: coordinate pdb file (default)
Info: To read alchflag data from column: 5
Info: LONG-RANGE LJ: APPLYING ANALYTICAL CORRECTIONS TO ENERGY AND PRESSURE
Info: LONG-RANGE LJ: AVERAGE A0 AND B0 COEFFICIENTS 257940 AND 189.542
Info: LONG-RANGE LJ: AVERAGE A1 AND B1 COEFFICIENTS 258542 AND 189.969
Info: STRUCTURE SUMMARY:
Info: 870 ATOMS
Info: 878 BONDS
Info: 1573 ANGLES
Info: 2283 DIHEDRALS
Info: 178 IMPROPERS
Info: 54 CROSSTERMS
Info: 0 EXCLUSIONS
Info: 445 RIGID BONDS
Info: ALCH: 7 ATOMS TO DISAPPEAR IN FINAL STATE
Info: ALCH: 7 ATOMS TO APPEAR IN FINAL STATE
Info: ALCH: 1 ANGLES LINKING INITIAL AND FINAL ATOMS DELETED
Info: ALCH: 6 DIHEDRALS LINKING INITIAL AND FINAL ATOMS DELETED
Info: 2165 DEGREES OF FREEDOM
Info: 425 HYDROGEN GROUPS
Info: 4 ATOMS IN LARGEST HYDROGEN GROUP
Info: 425 MIGRATION GROUPS
Info: 4 ATOMS IN LARGEST MIGRATION GROUP
Info: TOTAL MASS = 6053.88 amu
Info: TOTAL CHARGE = 2 e
Info: MASS DENSITY = 0.0465414 g/cm^3
Info: ATOM DENSITY = 0.00402778 atoms/A^3
Info: ADDED 4722 IMPLICIT EXCLUSIONS
Info: NONBONDED TABLE R-SQUARED SPACING: 0.0625
Info: NONBONDED TABLE SIZE: 769 POINTS
TCL: Reinitializing atom data from files with basename 9/namdcph.sw
Info: REMOVING COM VELOCITY -0.0987458 0.125187 0.115241
TCL: Running for 75000 steps
ETITLE: TS BOND ANGLE DIHED IMPRP ELECT VDW BOUNDARY MISC KINETIC TOTAL TEMP POTENTIAL TOTAL3 TEMPAVG PRESSURE GPRESSURE VOLUME PRESSAVG GPRESSAVG
ENERGY: 0 176.1268 477.4501 498.2425 35.1060 -1310.8499 -99.8915 0.0000 0.0000 617.8679 394.0518 287.2289 -223.8160 400.4410 295.0464 -12.8872 -9.6451 216000.0000 -9.7858 -9.7679
ENERGY: 75000 170.0091 496.7575 501.1832 37.8071 -1220.0412 -112.1523 0.0000 0.0000 601.7281 475.2914 279.7260 -126.4367 483.0776 297.4879 -32.0666 -34.1594 216000.0000 -10.8165 -10.8186
TCL: Setting parameter outputEnergies to 5000
TCL: Setting parameter dcdFreq to 5000
TCL: namdcph) PP1:933:LYS:P:1 WorkCorr   -42.7273 CorrWork    65.9394
TCL: Setting parameter outputEnergies to 5000
TCL: Setting parameter dcdFreq to 5000
TCL: Setting parameter firstTimestep to 88500
TCL: namdcph) Switch rejected!
TCL: Setting parameter alch to off
Info: NONBONDED TABLE R-SQUARED SPACING: 0.0625
Info: NONBONDED TABLE SIZE: 769 POINTS
TCL: namdcph) clearing extraBondsFile 9/namdcph.sw.extrabonds
TCL: Reloading molecular structure from file 9/namdcph.md.psf and pdb file 9/namdcph.md.pdb
Info: READING EXTRA BONDS FILE 9/namdcph.sw.extrabonds
Info: LONG-RANGE LJ: APPLYING ANALYTICAL CORRECTIONS TO ENERGY AND PRESSURE
Info: LONG-RANGE LJ: AVERAGE A AND B COEFFICIENTS 257940 AND 189.542
Info: STRUCTURE SUMMARY:
Info: 863 ATOMS
Info: 864 BONDS
Info: 1559 ANGLES
Info: 2262 DIHEDRALS
Info: 177 IMPROPERS
Info: 54 CROSSTERMS
Info: 0 EXCLUSIONS
Info: 440 RIGID BONDS
Info: 2149 DEGREES OF FREEDOM
Info: 423 HYDROGEN GROUPS
Info: 4 ATOMS IN LARGEST HYDROGEN GROUP
Info: 423 MIGRATION GROUPS
Info: 4 ATOMS IN LARGEST MIGRATION GROUP
Info: TOTAL MASS = 6022.82 amu
Info: TOTAL CHARGE = 2 e
Info: MASS DENSITY = 0.0463026 g/cm^3
Info: ATOM DENSITY = 0.00399537 atoms/A^3
Info: ADDED 4679 IMPLICIT EXCLUSIONS
Info: NONBONDED TABLE R-SQUARED SPACING: 0.0625
Info: NONBONDED TABLE SIZE: 769 POINTS
TCL: Reinitializing atom data from files with basename 9/namdcph.md
Info: REMOVING COM VELOCITY -0.087571 0.129787 0.115591
TCL: Running for 500 steps
TCL: namdcph) Proposal rejected.
TCL: Running for 500 steps without repeating first step
TCL: namdcph) Proposal rejected.
TCL: Running for 500 steps without repeating first step
ETITLE: TS BOND ANGLE DIHED IMPRP ELECT VDW BOUNDARY MISC KINETIC TOTAL TEMP POTENTIAL TOTAL3 TEMPAVG PRESSURE GPRESSURE VOLUME PRESSAVG GPRESSAVG
ENERGY: 90000 156.1920 511.1258 492.2324 31.5473 -1309.0033 -121.6770 0.0000 0.0000 656.6132 417.0304 307.5131 -239.5827 425.6218 293.5158 -20.6070 -20.8601 216000.0000 -6.6952 -6.6908
TCL: namdcph) Proposal rejected.
TCL: Running for 500 steps without repeating first step
TCL: namdcph) Proposal rejected.
TCL: Running for 500 steps without repeating first step
TCL: namdcph) Proposal rejected.
TCL: Running for 500 steps without repeating first step
TCL: namdcph) Proposal rejected.
TCL: Running for 500 steps without repeating first step
TCL: namdcph) Proposal rejected.
TCL: Running for 500 steps without repeating first step
TCL: namdcph) Proposal rejected.
TCL: Running for 500 steps without repeating first step
TCL: namdcph) Proposal rejected.
TCL: Running for 500 steps without repeating first step
TCL: namdcph) Proposal rejected.
TCL: Running for 500 steps without repeating first step
TCL: namdcph) Proposal rejected.
TCL: Running for 500 steps without repeating first step
TCL: namdcph) Proposal rejected.
TCL: Running for 500 steps without repeating first step
ETITLE: TS BOND ANGLE DIHED IMPRP ELECT VDW BOUNDARY MISC KINETIC TOTAL TEMP POTENTIAL TOTAL3 TEMPAVG PRESSURE GPRESSURE VOLUME PRESSAVG GPRESSAVG
ENERGY: 95000 168.0547 523.7587 507.9365 43.5892 -1321.1857 -132.0194 0.0000 0.0000 623.8846 414.0186 292.1852 -209.8661 421.7891 291.7520 -71.9380 -69.9782 216000.0000 -7.4229 -7.4194
TCL: namdcph) Proposal rejected.
TCL: Running for 500 steps without repeating first step
TCL: namdcph) Proposal rejected.
TCL: Running for 500 steps without repeating first step
TCL: namdcph) Proposal rejected.
TCL: Running for 500 steps without repeating first step
TCL: namdcph) Proposal rejected.
TCL: Running for 500 steps without repeating first step
TCL: namdcph) Proposal rejected.
TCL: Running for 500 steps without repeating first step
TCL: namdcph) Proposal rejected.
TCL: Running for 500 steps without repeating first step
TCL: namdcph) Proposal rejected.
TCL: Running for 500 steps without repeating first step
TCL: namdcph) Proposal rejected.
TCL: Running for 500 steps without repeating first step
TCL: namdcph) Proposal rejected.
TCL: Running for 500 steps without repeating first step
TCL: namdcph) Proposal rejected.
TCL: Running for 500 steps without repeating first step
ETITLE: TS BOND ANGLE DIHED IMPRP ELECT VDW BOUNDARY MISC KINETIC TOTAL TEMP POTENTIAL TOTAL3 TEMPAVG PRESSURE GPRESSURE VOLUME PRESSAVG GPRESSAVG
ENERGY: 100000 152.6411 514.5773 506.6473 40.7745 -1313.9416 -113.3522 0.0000 0.0000 585.1672 372.5136 274.0526 -212.6536 378.9668 294.3458 112.6437 115.3962 216000.0000 -5.6184 -5.6188
TCL: namdcph) Proposal rejected.
TCL: Running for 500 steps without repeating first step
TCL: namdcph) Proposal rejected.
TCL: Running for 500 steps without repeating first step
TCL: namdcph) Proposal rejected.
TCL: Running for 500 steps without repeating first step
TCL: namdcph) Proposal rejected.
TCL: Running for 500 steps without repeating first step
TCL: namdcph) Proposal rejected.
TCL: Running for 500 steps without repeating first step
TCL: namdcph) Proposal rejected.
TCL: Running for 500 steps without repeating first step
TCL: namdcph) Proposal rejected.
TCL: Running for 500 steps without repeating first step
TCL: namdcph) Proposal rejected.
TCL: Running for 500 steps without repeating first step
TCL: namdcph) Proposal rejected.
TCL: Running for 500 steps without repeating first step
TCL: namdcph) Proposal rejected.
TCL: Running for 500 steps without repeating first step
ETITLE: TS BOND ANGLE DIHED IMPRP ELECT VDW BOUNDARY MISC KINETIC TOTAL TEMP POTENTIAL TOTAL3 TEMPAVG PRESSURE GPRESSURE VOLUME PRESSAVG GPRESSAVG
ENERGY: 105000 175.7647 531.5057 496.9385 52.4661 -1332.6529 -107.8021 0.0000 0.0000 635.0677 451.2877 297.4226 -183.7800 458.4385 298.4607 -54.8566 -55.9001 216000.0000 -8.0199 -8.0218
TCL: namdcph) Proposal rejected.
TCL: Running for 500 steps without repeating first step
TCL: namdcph) Proposal rejected.
TCL: Running for 500 steps without repeating first step
TCL: namdcph) Proposal rejected.
TCL: Running for 500 steps without repeating first step
TCL: namdcph) Proposal rejected.
TCL: Running for 500 steps without repeating first step
TCL: namdcph) Proposal rejected.
TCL: Running for 500 steps without repeating first step
TCL: namdcph) Proposal rejected.
TCL: Running for 500 steps without repeating first step
TCL: namdcph) Proposal rejected.
TCL: Running for 500 steps without repeating first step
TCL: namdcph) Proposal rejected.
TCL: Running for 500 steps without repeating first step
TCL: namdcph) Proposal rejected.
TCL: Running for 500 steps without repeating first step
TCL: namdcph) Proposal rejected.
TCL: Running for 500 steps without repeating first step
ETITLE: TS BOND ANGLE DIHED IMPRP ELECT VDW BOUNDARY MISC KINETIC TOTAL TEMP POTENTIAL TOTAL3 TEMPAVG PRESSURE GPRESSURE VOLUME PRESSAVG GPRESSAVG
ENERGY: 110000 178.8002 533.5865 494.4496 29.9737 -1337.8831 -86.1101 0.0000 0.0000 609.7306 422.5473 285.5564 -187.1832 427.2895 297.6968 -8.0612 -6.0161 216000.0000 -9.6889 -9.6999
TCL: namdcph) Proposal rejected.
TCL: Running for 500 steps without repeating first step
TCL: namdcph) Proposal rejected.
TCL: Running for 500 steps without repeating first step
TCL: namdcph) Proposal rejected.
TCL: Running for 500 steps without repeating first step
TCL: namdcph) Proposal rejected.
TCL: Running for 500 steps without repeating first step
TCL: namdcph) Proposal rejected.
TCL: Running for 500 steps without repeating first step
TCL: namdcph) Proposal rejected.
TCL: Running for 500 steps without repeating first step
TCL: namdcph) Proposal rejected.
TCL: Running for 500 steps without repeating first step
TCL: namdcph) Proposal rejected.
TCL: Running for 500 steps without repeating first step
TCL: namdcph) Proposal rejected.
TCL: Running for 500 steps without repeating first step
TCL: namdcph) Proposal rejected.
TCL: Running for 500 steps without repeating first step
ETITLE: TS BOND ANGLE DIHED IMPRP ELECT VDW BOUNDARY MISC KINETIC TOTAL TEMP POTENTIAL TOTAL3 TEMPAVG PRESSURE GPRESSURE VOLUME PRESSAVG GPRESSAVG
ENERGY: 115000 166.9836 521.4442 495.9984 36.1909 -1305.5703 -140.5098 0.0000 0.0000 637.4473 411.9845 298.5371 -225.4628 419.0614 295.5635 -90.2756 -90.3595 216000.0000 -11.3226 -11.3320
TCL: namdcph) Proposal rejected.
TCL: Running for 500 steps without repeating first step
TCL: namdcph) Proposal rejected.
TCL: Running for 500 steps without repeating first step
TCL: namdcph) Proposal rejected.
TCL: Running for 500 steps without repeating first step
TCL: namdcph) Proposal rejected.
TCL: Running for 500 steps without repeating first step
TCL: namdcph) Proposal rejected.
TCL: Running for 500 steps without repeating first step
TCL: namdcph) Proposal rejected.
TCL: Running for 500 steps without repeating first step
TCL: namdcph) Proposal rejected.
TCL: Running for 500 steps without repeating first step
TCL: namdcph) Proposal rejected.
TCL: Running for 500 steps without repeating first step
TCL: namdcph) Proposal rejected.
TCL: Running for 500 steps without repeating first step
TCL: namdcph) Proposal rejected.
TCL: Running for 500 steps without repeating first step
ETITLE: TS BOND ANGLE DIHED IMPRP ELECT VDW BOUNDARY MISC KINETIC TOTAL TEMP POTENTIAL TOTAL3 TEMPAVG PRESSURE GPRESSURE VOLUME PRESSAVG GPRESSAVG
ENERGY: 120000 148.1343 505.1222 503.1770 40.6008 -1310.9257 -106.2599 0.0000 0.0000 652.3048 432.1535 305.4953 -220.1513 439.5990 294.1468 67.1148 65.5802 216000.0000 -8.0013 -8.0045
TCL: namdcph) Proposal rejected.
TCL: Running for 500 steps without repeating first step
TCL: namdcph) Proposal rejected.
TCL: Running for 500 steps without repeating first step
TCL: namdcph) Proposal rejected.
TCL: Running for 500 steps without repeating first step
TCL: namdcph) Proposal rejected.
TCL: Running for 500 steps without repeating first step
TCL: namdcph) Proposal rejected.
TCL: Running for 500 steps without repeating first step
TCL: namdcph) Proposal rejected.
TCL: Running for 500 steps without repeating first step
TCL: namdcph) Proposal rejected.
TCL: Running for 500 steps without repeating first step
TCL: namdcph) Proposal rejected.
TCL: Running for 500 steps without repeating first step
TCL: namdcph) Proposal rejected.
TCL: Running for 500 steps without repeating first step
TCL: namdcph) Proposal rejected.
TCL: Running for 500 steps without repeating first step
ETITLE: TS BOND ANGLE DIHED IMPRP ELECT VDW BOUNDARY MISC KINETIC TOTAL TEMP POTENTIAL TOTAL3 TEMPAVG PRESSURE GPRESSURE VOLUME PRESSAVG GPRESSAVG
ENERGY: 125000 169.8213 499.2614 504.4126 37.5584 -1322.7784 -93.6942 0.0000 0.0000 639.0808 433.6619 299.3021 -205.4189 442.5346 297.3830 -134.6379 -129.1964 216000.0000 -6.8831 -6.8761
TCL: namdcph) Proposal rejected.
TCL: Running for 500 steps without repeating first step
TCL: namdcph) Proposal rejected.
TCL: Running for 500 steps without repeating first step
TCL: namdcph) Proposal rejected.
TCL: Running for 500 steps without repeating first step
TCL: namdcph) Proposal rejected.
TCL: Running for 500 steps without repeating first step
TCL: namdcph) Proposal rejected.
TCL: Running for 500 steps without repeating first step
TCL: namdcph) Proposal rejected.
TCL: Running for 500 steps without repeating first step
TCL: namdcph) Proposal rejected.
TCL: Running for 500 steps without repeating first step
TCL: namdcph) Proposal rejected.
TCL: Running for 500 steps without repeating first step
TCL: namdcph) Proposal rejected.
TCL: Running for 500 steps without repeating first step
TCL: namdcph) Proposal rejected.
TCL: Running for 500 steps without repeating first step
ETITLE: TS BOND ANGLE DIHED IMPRP ELECT VDW BOUNDARY MISC KINETIC TOTAL TEMP POTENTIAL TOTAL3 TEMPAVG PRESSURE GPRESSURE VOLUME PRESSAVG GPRESSAVG
ENERGY: 130000 155.2102 516.0331 489.0928 32.5950 -1303.2320 -109.1585 0.0000 0.0000 639.7291 420.2697 299.6057 -219.4594 429.0604 302.7881 -27.9857 -28.3880 216000.0000 -11.2910 -11.2693
TCL: namdcph) Proposal rejected.
TCL: Running for 500 steps without repeating first step
TCL: namdcph) Proposal rejected.
TCL: Running for 500 steps without repeating first step
TCL: namdcph) Proposal rejected.
TCL: Running for 500 steps without repeating first step
TCL: namdcph) Proposal rejected.
TCL: Running for 500 steps without repeating first step
TCL: namdcph) Proposal rejected.
TCL: Running for 500 steps without repeating first step
TCL: namdcph) Proposal rejected.
TCL: Running for 500 steps without repeating first step
TCL: namdcph) Proposal rejected.
TCL: Running for 500 steps without repeating first step
TCL: namdcph) Proposal rejected.
TCL: Running for 500 steps without repeating first step
TCL: namdcph) Proposal rejected.
TCL: Running for 500 steps without repeating first step
TCL: namdcph) Proposal rejected.
TCL: Running for 500 steps without repeating first step
ETITLE: TS BOND ANGLE DIHED IMPRP ELECT VDW BOUNDARY MISC KINETIC TOTAL TEMP POTENTIAL TOTAL3 TEMPAVG PRESSURE GPRESSURE VOLUME PRESSAVG GPRESSAVG
ENERGY: 135000 156.5355 520.1497 506.4477 39.4159 -1277.7786 -133.0764 0.0000 0.0000 629.6957 441.3894 294.9068 -188.3063 449.0418 294.8485 1.3453 -0.2894 216000.0000 -5.8065 -5.8062
TCL: namdcph) Proposal rejected.
TCL: Running for 500 steps without repeating first step
TCL: namdcph) Proposal rejected.
TCL: Running for 500 steps without repeating first step
TCL: namdcph) Proposal rejected.
TCL: Running for 500 steps without repeating first step
TCL: namdcph) Proposal rejected.
TCL: Running for 500 steps without repeating first step
TCL: namdcph) Proposal rejected.
TCL: Running for 500 steps without repeating first step
TCL: namdcph) Proposal rejected.
TCL: Running for 500 steps without repeating first step
TCL: namdcph) Proposal rejected.
TCL: Running for 500 steps without repeating first step
TCL: namdcph) Proposal rejected.
TCL: Running for 500 steps without repeating first step
TCL: namdcph) Proposal rejected.
TCL: Running for 500 steps without repeating first step
TCL: namdcph) Proposal rejected.
TCL: Running for 500 steps without repeating first step
ETITLE: TS BOND ANGLE DIHED IMPRP ELECT VDW BOUNDARY MISC KINETIC TOTAL TEMP POTENTIAL TOTAL3 TEMPAVG PRESSURE GPRESSURE VOLUME PRESSAVG GPRESSAVG
ENERGY: 140000 158.2477 533.4188 489.7678 39.7701 -1289.3172 -115.6557 0.0000 0.0000 649.4918 465.7232 304.1779 -183.7686 472.5630 301.7733 115.9518 116.4760 216000.0000 -6.7284 -6.7329
TCL: namdcph) Proposal rejected.
TCL: Running for 500 steps without repeating first step
TCL: namdcph) Proposal rejected.
TCL: Running for 500 steps without repeating first step
TCL: namdcph) Proposal rejected.
TCL: Running for 500 steps without repeating first step
TCL: namdcph) Proposal rejected.
TCL: Running for 500 steps without repeating first step
TCL: namdcph) Proposal rejected.
TCL: Running for 500 steps without repeating first step
TCL: namdcph) Proposal rejected.
TCL: Running for 500 steps without repeating first step
TCL: namdcph) Proposal rejected.
TCL: Running for 500 steps without repeating first step
TCL: namdcph) Proposal rejected.
TCL: Running for 500 steps without repeating first step
TCL: namdcph) Proposal rejected.
TCL: Running for 500 steps without repeating first step
TCL: namdcph) Proposal rejected.
TCL: Running for 500 steps without repeating first step
ETITLE: TS BOND ANGLE DIHED IMPRP ELECT VDW BOUNDARY MISC KINETIC TOTAL TEMP POTENTIAL TOTAL3 TEMPAVG PRESSURE GPRESSURE VOLUME PRESSAVG GPRESSAVG
ENERGY: 145000 172.0820 494.1952 511.2184 33.3587 -1307.4789 -111.3171 0.0000 0.0000 624.6582 416.7164 292.5475 -207.9417 424.7081 299.5986 -31.2073 -30.8640 216000.0000 -8.4251 -8.4289
TCL: namdcph) Proposal rejected.
TCL: Running for 500 steps without repeating first step
TCL: namdcph) Proposal rejected.
TCL: Running for 500 steps without repeating first step
TCL: namdcph) Proposal rejected.
TCL: Running for 500 steps without repeating first step
TCL: namdcph) Proposal rejected.
TCL: Running for 500 steps without repeating first step
TCL: namdcph) Proposal rejected.
TCL: Running for 500 steps without repeating first step
TCL: namdcph) Proposal rejected.
TCL: Running for 500 steps without repeating first step
TCL: namdcph) Proposal rejected.
TCL: Running for 500 steps without repeating first step
TCL: namdcph) Proposal rejected.
TCL: Running for 500 steps without repeating first step
TCL: namdcph) Proposal rejected.
TCL: Running for 500 steps without repeating first step
TCL: namdcph) Proposal rejected.
TCL: Running for 500 steps without repeating first step
ETITLE: TS BOND ANGLE DIHED IMPRP ELECT VDW BOUNDARY MISC KINETIC TOTAL TEMP POTENTIAL TOTAL3 TEMPAVG PRESSURE GPRESSURE VOLUME PRESSAVG GPRESSAVG
ENERGY: 150000 176.6870 514.7861 504.9476 39.7184 -1319.3438 -95.0842 0.0000 0.0000 623.3796 445.0907 291.9487 -178.2888 450.9807 301.6222 67.2816 65.9566 216000.0000 -9.8140 -9.8225
TCL: namdcph) Proposal rejected.
TCL: namdcph) *************************************************
TCL: namdcph) CONSTANT pH MD STATISTICS:
TCL: namdcph) move label                : attempts accept. rate
TCL: namdcph) PP1:918:GLU               :        0         0.00
TCL: namdcph) PP1:921:LYS               :        2         0.00
TCL: namdcph) PP1:933:LYS               :        3         0.00
TCL: namdcph) PP1:936:ASP               :        0         0.00
TCL: namdcph) PP1:947:LYS               :        1         0.00
TCL: namdcph) PP1:964:LYS               :        0         0.00
TCL: namdcph) *************************************************
TCL: Exiting due to exit command.
