Info: SIMULATION PARAMETERS:
Info: TIMESTEP               2
Info: NUMBER OF STEPS        0
Info: STEPS PER CYCLE        20
Info: PERIODIC CELL BASIS 1  60 0 0
Info: PERIODIC CELL BASIS 2  0 60 0
Info: PERIODIC CELL BASIS 3  0 0 60
Info: PERIODIC CELL CENTER   0 0 0
Info: WRAPPING WATERS AROUND PERIODIC BOUNDARIES ON OUTPUT.
Info: WRAPPING ALL CLUSTERS AROUND PERIODIC BOUNDARIES ON OUTPUT.
Info: FIRST LDB TIMESTEP     100
Info: LAST LDB TIMESTEP     -1
Info: HOM BACKGROUND SCALING 1
Info: PME BACKGROUND SCALING 1
Info: MIN ATOMS PER PATCH    40
Info: VELOCITY FILE          7.3/Pre73_0.vel
Info: CENTER OF MASS MOVING INITIALLY? NO
Info: DIELECTRIC             1
Info: EXCLUDE                SCALED ONE-FOUR
Info: 1-4 ELECTROSTATICS SCALED BY 1
Info: MODIFIED 1-4 VDW PARAMETERS WILL BE USED
Info: DCD FILENAME           7.3/Pre73_1.dcd
Info: DCD FREQUENCY          5000
Info: DCD FIRST STEP         5000
Info: DCD FILE WILL CONTAIN UNIT CELL DATA
Info: NO EXTENDED SYSTEM TRAJECTORY OUTPUT
Info: NO VELOCITY DCD OUTPUT
Info: NO FORCE DCD OUTPUT
Info: OUTPUT FILENAME        7.3/Pre73_1
Info: BINARY OUTPUT FILES WILL BE USED
Info: NO RESTART FILE
Info: SWITCHING ACTIVE
Info: VDW FORCE SWITCHING ACTIVE
Info: SWITCHING ON           10
Info: SWITCHING OFF          12
Info: PAIRLIST DISTANCE      14
Info: PAIRLIST SHRINK RATE   0.01
Info: PAIRLIST GROW RATE     0.01
Info: PAIRLIST TRIGGER       0.3
Info: PAIRLISTS PER CYCLE    2
Info: PAIRLISTS ENABLED
Info: MARGIN                 2
Info: HYDROGEN GROUP CUTOFF  2.5
Info: PATCH DIMENSION        18.5
Info: ENERGY OUTPUT STEPS    5000
Info: CROSSTERM ENERGY INCLUDED IN DIHEDRAL
Info: TIMING OUTPUT STEPS    50000
Info: THERMODYNAMIC INTEGRATION (TI) ON
Info: TI LAMBDA VALUE     0
Info: TI INTRA-ALCHEMICAL NON-BONDED INTERACTIONS WILL BE DECOUPLED
Info: TI INTRA-ALCHEMICAL BONDED INTERACTIONS WILL BE DECOUPLED
Info: TI VDW SHIFTING COEFFICIENT 0
Info: TI ELEC. ACTIVE FOR ANNIHILATED PARTICLES BETWEEN LAMBDA = 0 AND LAMBDA = 1
Info: TI ELEC. ACTIVE FOR EXNIHILATED PARTICLES BETWEEN LAMBDA = 0 AND LAMBDA = 1
Info: TI VDW ACTIVE FOR ANNIHILATED PARTICLES BETWEEN LAMBDA = 0 AND LAMBDA = 1
Info: TI VDW ACTIVE FOR EXNIHILATED PARTICLES BETWEEN LAMBDA = 0 AND LAMBDA = 1
Info: TI BOND ACTIVE FOR ANNIHILATED PARTICLES BETWEEN LAMBDA = 0 AND LAMBDA = 1
Info: TI BOND ACTIVE FOR EXNIHILATED PARTICLES BETWEEN LAMBDA = 0 AND LAMBDA = 1
Info: LANGEVIN DYNAMICS ACTIVE
Info: LANGEVIN TEMPERATURE   298
Info: LANGEVIN USING BBK INTEGRATOR
Info: LANGEVIN DAMPING COEFFICIENT IS 1 INVERSE PS
Info: LANGEVIN DYNAMICS NOT APPLIED TO HYDROGENS
Info: PARTICLE MESH EWALD (PME) ACTIVE
Info: PME TOLERANCE               1e-06
Info: PME EWALD COEFFICIENT       0.257952
Info: PME INTERPOLATION ORDER     4
Info: PME GRID DIMENSIONS         60 60 60
Info: PME MAXIMUM GRID SPACING    1
Info: FULL ELECTROSTATIC EVALUATION FREQUENCY      2
Info: USING VERLET I (r-RESPA) MTS SCHEME.
Info: C1 SPLITTING OF LONG RANGE ELECTROSTATICS
Info: PLACING ATOMS IN PATCHES BY HYDROGEN GROUPS
Info: RIGID BONDS TO HYDROGEN : ALL
Info:         ERROR TOLERANCE : 1e-08
Info:          MAX ITERATIONS : 100
Info: RIGID WATER USING SETTLE ALGORITHM
Info: RANDOM NUMBER SEED     1685316248
Info: USE HYDROGEN BONDS?    NO
Info: COORDINATE PDB         7.3/Pre73_0.pdb
Info: STRUCTURE FILE         7.3/Pre73_0.psf
Info: PARAMETER file: CHARMM format!
Info: PARAMETERS             ../../toppar/par_all36_carb.prm
Info: PARAMETERS             ../../toppar/par_all36_cgenff.prm
Info: PARAMETERS             ../../toppar/par_all36_lipid.prm
Info: PARAMETERS             ../../toppar/par_all36_na.prm
Info: PARAMETERS             ../../toppar/par_all36_prot.prm
Info: PARAMETERS             ../../toppar/par_all36_solvent.prm
Info: PARAMETERS             ../../toppar/par_cph36_prot.prm
Info: PARAMETERS             ../../toppar/toppar_all36_carb_glycopeptide.str
Info: PARAMETERS             ../../toppar/toppar_water_ions_namd.str
Info: USING ARITHMETIC MEAN TO COMBINE L-J SIGMA PARAMETERS
Info: BINARY COORDINATES     7.3/Pre73_0.coor
Info: SKIPPING rtf SECTION IN STREAM FILE
Info: SKIPPING rtf SECTION IN STREAM FILE
Info: SUMMARY OF PARAMETERS:
Info: 925 BONDS
Info: 2696 ANGLES
Info: 6608 DIHEDRAL
Info: 195 IMPROPER
Info: 6 CROSSTERM
Info: 366 VDW
Info: 6 VDW_PAIRS
Info: 0 NBTHOLE_PAIRS
Info: READING EXTRA BONDS FILE 7.3/namdcph.sw.extrabonds
Info: To read alchdata from file: coordinate pdb file (default)
Info: To read alchflag data from column: 5
Info: LONG-RANGE LJ: APPLYING ANALYTICAL CORRECTIONS TO ENERGY AND PRESSURE
Info: LONG-RANGE LJ: AVERAGE A0 AND B0 COEFFICIENTS 257940 AND 189.542
Info: LONG-RANGE LJ: AVERAGE A1 AND B1 COEFFICIENTS 257940 AND 189.542
Info: STRUCTURE SUMMARY:
Info: 863 ATOMS
Info: 864 BONDS
Info: 1559 ANGLES
Info: 2262 DIHEDRALS
Info: 177 IMPROPERS
Info: 54 CROSSTERMS
Info: 0 EXCLUSIONS
Info: 440 RIGID BONDS
Info: ALCH: 0 ATOMS TO DISAPPEAR IN FINAL STATE
Info: ALCH: 0 ATOMS TO APPEAR IN FINAL STATE
Info: 2149 DEGREES OF FREEDOM
Info: 423 HYDROGEN GROUPS
Info: 4 ATOMS IN LARGEST HYDROGEN GROUP
Info: 423 MIGRATION GROUPS
Info: 4 ATOMS IN LARGEST MIGRATION GROUP
Info: TOTAL MASS = 6022.82 amu
Info: TOTAL CHARGE = 2 e
Info: MASS DENSITY = 0.0463026 g/cm^3
Info: ATOM DENSITY = 0.00399537 atoms/A^3
Info: ADDED 4679 IMPLICIT EXCLUSIONS
Info: NONBONDED TABLE R-SQUARED SPACING: 0.0625
Info: NONBONDED TABLE SIZE: 769 POINTS
Info: REMOVING COM VELOCITY 0.0150269 -0.057883 0.110613
TCL: Setting parameter alchLambdaFreq to 1
Info: NONBONDED TABLE R-SQUARED SPACING: 0.0625
Info: NONBONDED TABLE SIZE: 769 POINTS
TCL: Setting parameter alch to off
Info: NONBONDED TABLE R-SQUARED SPACING: 0.0625
Info: NONBONDED TABLE SIZE: 769 POINTS
TCL: namdcph) initializing constant pH PSF...
TCL: cphpsfgen) creating new alchemical side chain for PP1:918:GLU
TCL: cphpsfgen) merging alchemical sidechains for PP1:918:GLU
TCL: cphpsfgen) creating new alchemical side chain for PP1:921:LYS
TCL: cphpsfgen) merging alchemical sidechains for PP1:921:LYS
TCL: cphpsfgen) creating new alchemical side chain for PP1:933:LYS
TCL: cphpsfgen) merging alchemical sidechains for PP1:933:LYS
TCL: cphpsfgen) creating new alchemical side chain for PP1:936:ASP
TCL: cphpsfgen) merging alchemical sidechains for PP1:936:ASP
TCL: cphpsfgen) creating new alchemical side chain for PP1:947:LYS
TCL: cphpsfgen) merging alchemical sidechains for PP1:947:LYS
TCL: cphpsfgen) creating new alchemical side chain for PP1:964:LYS
TCL: cphpsfgen) merging alchemical sidechains for PP1:964:LYS
TCL: namdcph) ***************************************
TCL: namdcph) CONSTANT pH MD ACTIVE
TCL: namdcph) RESTART FILENAME 7.3/Pre73_0.cphrst
TCL: namdcph) SYSTEM pH 7.3
TCL: namdcph) CONSTANT pH CONFIGURATION FILE(S)
TCL: namdcph) ../../toppar/conf_cph36_prot.json
TCL: namdcph) NONEQUILIBRIUM SWITCH PARAMETERS:
TCL: namdcph) ALCHEMICAL FORCE CONSTANT 100.0 kcal/mol-A^2
TCL: namdcph) neMD/MC CRITERION TEMPERATURE 298.0
TCL: namdcph) TEMPORARY FILE INFORMATION:
TCL: namdcph) cpH TOPOLOGY FILE BASENAME 7.3/namdcph.md
TCL: namdcph) neMD/MC TRAJECTORY BASENAME 7.3/namdcph.sw
TCL: namdcph) ***************************************
TCL: namdcph) ***************************************
TCL: namdcph) TITRATABLE RESIDUE DEFINITIONS:
TCL: namdcph) HIS ASP GLU CYS LYS
TCL: namdcph) TITRATABLE SYSTEM SUMMARY:
TCL: namdcph) 6 RESIDUE(S)
TCL: namdcph) 16 PROTONATION SITE(S)
TCL: namdcph) ***************************************
TCL: namdcph) segid:resid:resname : state : pKai
TCL: namdcph) PP1:918:GLU         :     D : 4.68
TCL: namdcph) PP1:921:LYS         :     P : 10.47
TCL: namdcph) PP1:933:LYS         :     P : 10.42
TCL: namdcph) PP1:936:ASP         :     D : 3.83
TCL: namdcph) PP1:947:LYS         :     P : 10.47
TCL: namdcph) PP1:964:LYS         :     P : 10.40
TCL: namdcph) ***************************************
TCL: namdcph) *************************************************
TCL: namdcph) CONSTANT pH neMD/MC MOVES:
TCL: namdcph) MAX. ATTEMPTS PER CYCLE: 1
TCL: namdcph) ONE RESIDUE MOVES
TCL: namdcph) move label     : numsteps   weight
TCL: namdcph) PP1:918:GLU    :    75000     1.00
TCL: namdcph) PP1:921:LYS    :    75000     1.00
TCL: namdcph) PP1:933:LYS    :    75000     1.00
TCL: namdcph) PP1:936:ASP    :    75000     1.00
TCL: namdcph) PP1:947:LYS    :    75000     1.00
TCL: namdcph) PP1:964:LYS    :    75000     1.00
TCL: namdcph) *************************************************
TCL: namdcph) clearing extraBondsFile 7.3/namdcph.sw.extrabonds
TCL: Reloading molecular structure from file 7.3/namdcph.md.psf and pdb file 7.3/namdcph.md.pdb
Info: READING EXTRA BONDS FILE 7.3/namdcph.sw.extrabonds
Info: LONG-RANGE LJ: APPLYING ANALYTICAL CORRECTIONS TO ENERGY AND PRESSURE
Info: LONG-RANGE LJ: AVERAGE A AND B COEFFICIENTS 257940 AND 189.542
Info: STRUCTURE SUMMARY:
Info: 863 ATOMS
Info: 864 BONDS
Info: 1559 ANGLES
Info: 2262 DIHEDRALS
Info: 177 IMPROPERS
Info: 54 CROSSTERMS
Info: 0 EXCLUSIONS
Info: 440 RIGID BONDS
Info: 2149 DEGREES OF FREEDOM
Info: 423 HYDROGEN GROUPS
Info: 4 ATOMS IN LARGEST HYDROGEN GROUP
Info: 423 MIGRATION GROUPS
Info: 4 ATOMS IN LARGEST MIGRATION GROUP
Info: TOTAL MASS = 6022.82 amu
Info: TOTAL CHARGE = 2 e
Info: MASS DENSITY = 0.0463026 g/cm^3
Info: ATOM DENSITY = 0.00399537 atoms/A^3
Info: ADDED 4679 IMPLICIT EXCLUSIONS
Info: NONBONDED TABLE R-SQUARED SPACING: 0.0625
Info: NONBONDED TABLE SIZE: 769 POINTS
TCL: Reinitializing atom data from files with basename 7.3/namdcph.md
Info: REMOVING COM VELOCITY 0.015027 -0.057883 0.110613
TCL: Minimizing for 100 steps
ETITLE: TS BOND ANGLE DIHED IMPRP ELECT VDW BOUNDARY MISC KINETIC TOTAL TEMP POTENTIAL TOTAL3 TEMPAVG PRESSURE GPRESSURE VOLUME PRESSAVG GPRESSAVG
ENERGY: 0 181.9871 483.3244 487.8165 35.4254 -1358.7925 -95.9416 0.0000 0.0000 0.0000 -266.1807 0.0000 -266.1807 -266.1807 0.0000 -18.2573 -117.6091 216000.0000 -18.2573 -117.6091
ENERGY: 20 105.3057 221.3006 448.2412 12.8255 -1380.3046 -131.5807 0.0000 0.0000 0.0000 -724.2122 0.0000 -724.2122 -724.2122 0.0000 20.1787 -15.1921 216000.0000 20.1787 -15.1921
ENERGY: 40 46.5423 190.1076 436.8690 9.8546 -1379.0715 -137.8305 0.0000 0.0000 0.0000 -833.5285 0.0000 -833.5285 -833.5285 0.0000 2.9031 -52.7189 216000.0000 2.9031 -52.7189
ENERGY: 60 54.4580 185.6613 425.2056 10.7541 -1381.6357 -140.1229 0.0000 0.0000 0.0000 -845.6797 0.0000 -845.6797 -845.6797 0.0000 -7.6279 -63.8263 216000.0000 -7.6279 -63.8263
ENERGY: 80 48.0592 178.0926 420.5807 10.4583 -1390.0886 -137.2675 0.0000 0.0000 0.0000 -870.1654 0.0000 -870.1654 -870.1654 0.0000 1.0708 -57.9168 216000.0000 1.0708 -57.9168
ENERGY: 100 42.6827 171.4459 419.2134 8.9048 -1388.8854 -139.7205 0.0000 0.0000 0.0000 -886.3591 0.0000 -886.3591 -886.3591 0.0000 7.6891 -48.9698 216000.0000 7.6891 -48.9698
TCL: Setting parameter firstTimeStep to 0
TCL: Running for 1000 steps
ETITLE: TS BOND ANGLE DIHED IMPRP ELECT VDW BOUNDARY MISC KINETIC TOTAL TEMP POTENTIAL TOTAL3 TEMPAVG PRESSURE GPRESSURE VOLUME PRESSAVG GPRESSAVG
ENERGY: 0 42.6827 171.4459 419.2134 8.9048 -1388.8854 -139.7205 0.0000 0.0000 627.3360 -259.0230 293.8016 -886.3591 -259.3652 293.8016 23.3591 25.2159 216000.0000 23.3591 25.2159
TCL: namdcph) Proposal rejected.
TCL: Running for 1000 steps without repeating first step
TCL: namdcph) Proposal rejected.
TCL: Running for 1000 steps without repeating first step
TCL: namdcph) Proposal rejected.
TCL: Running for 1000 steps without repeating first step
TCL: namdcph) Proposal rejected.
TCL: Running for 1000 steps without repeating first step
ETITLE: TS BOND ANGLE DIHED IMPRP ELECT VDW BOUNDARY MISC KINETIC TOTAL TEMP POTENTIAL TOTAL3 TEMPAVG PRESSURE GPRESSURE VOLUME PRESSAVG GPRESSAVG
ENERGY: 5000 175.4485 494.4624 504.5274 37.3739 -1383.6388 -105.0084 0.0000 0.0000 631.8913 355.0563 295.9350 -276.8349 362.6139 265.3796 -152.8622 -151.1820 216000.0000 -4.7166 -4.7174
TCL: namdcph) Proposal rejected.
TCL: Running for 1000 steps without repeating first step
TCL: namdcph) Proposal rejected.
TCL: Running for 1000 steps without repeating first step
TCL: namdcph) Proposal rejected.
TCL: Running for 1000 steps without repeating first step
TCL: namdcph) Proposal rejected.
TCL: Running for 1000 steps without repeating first step
TCL: namdcph) Proposal rejected.
TCL: Running for 1000 steps without repeating first step
ETITLE: TS BOND ANGLE DIHED IMPRP ELECT VDW BOUNDARY MISC KINETIC TOTAL TEMP POTENTIAL TOTAL3 TEMPAVG PRESSURE GPRESSURE VOLUME PRESSAVG GPRESSAVG
ENERGY: 10000 162.9672 510.9518 488.5505 29.7528 -1359.1210 -92.9369 0.0000 0.0000 621.0502 361.2145 290.8578 -259.8357 368.6436 302.0306 37.1565 37.2961 216000.0000 -3.5645 -3.5581
TCL: namdcph) Proposal rejected.
TCL: Running for 1000 steps without repeating first step
TCL: namdcph) Proposal rejected.
TCL: Running for 1000 steps without repeating first step
TCL: namdcph) Proposal rejected.
TCL: Running for 1000 steps without repeating first step
TCL: namdcph) Proposal rejected.
TCL: Running for 1000 steps without repeating first step
TCL: namdcph) Proposal rejected.
TCL: Running for 1000 steps without repeating first step
ETITLE: TS BOND ANGLE DIHED IMPRP ELECT VDW BOUNDARY MISC KINETIC TOTAL TEMP POTENTIAL TOTAL3 TEMPAVG PRESSURE GPRESSURE VOLUME PRESSAVG GPRESSAVG
ENERGY: 15000 174.0915 506.5434 485.8667 31.5725 -1347.0631 -120.9824 0.0000 0.0000 630.4700 360.4987 295.2694 -269.9713 368.4342 293.8581 -131.1591 -130.8366 216000.0000 -5.8754 -5.8849
TCL: namdcph) Proposal rejected.
TCL: Running for 1000 steps without repeating first step
TCL: namdcph) Proposal rejected.
TCL: Running for 1000 steps without repeating first step
TCL: namdcph) Proposal rejected.
TCL: Running for 1000 steps without repeating first step
TCL: namdcph) Proposal rejected.
TCL: Running for 1000 steps without repeating first step
TCL: namdcph) Proposal rejected.
TCL: Running for 1000 steps without repeating first step
ETITLE: TS BOND ANGLE DIHED IMPRP ELECT VDW BOUNDARY MISC KINETIC TOTAL TEMP POTENTIAL TOTAL3 TEMPAVG PRESSURE GPRESSURE VOLUME PRESSAVG GPRESSAVG
ENERGY: 20000 166.2202 500.8228 496.2099 29.7036 -1362.7104 -119.7567 0.0000 0.0000 688.2974 398.7867 322.3518 -289.5107 408.6253 299.7525 -141.3564 -142.4687 216000.0000 -10.3065 -10.2945
TCL: namdcph) Proposal rejected.
TCL: Running for 1000 steps without repeating first step
TCL: namdcph) Proposal rejected.
TCL: Running for 1000 steps without repeating first step
TCL: namdcph) Proposal rejected.
TCL: Running for 1000 steps without repeating first step
TCL: namdcph) Proposal rejected.
TCL: Running for 1000 steps without repeating first step
TCL: namdcph) Proposal rejected.
TCL: Running for 1000 steps without repeating first step
ETITLE: TS BOND ANGLE DIHED IMPRP ELECT VDW BOUNDARY MISC KINETIC TOTAL TEMP POTENTIAL TOTAL3 TEMPAVG PRESSURE GPRESSURE VOLUME PRESSAVG GPRESSAVG
ENERGY: 25000 175.3542 504.9145 492.0163 32.0448 -1350.7145 -99.5255 0.0000 0.0000 626.4723 380.5621 293.3971 -245.9102 388.0733 297.7351 -61.9220 -60.1567 216000.0000 -7.4728 -7.4777
TCL: namdcph) Proposal rejected.
TCL: Running for 1000 steps without repeating first step
TCL: namdcph) Proposal rejected.
TCL: Running for 1000 steps without repeating first step
TCL: namdcph) Proposal rejected.
TCL: Running for 1000 steps without repeating first step
TCL: namdcph) Proposal rejected.
TCL: Running for 1000 steps without repeating first step
TCL: namdcph) Proposal rejected.
TCL: Running for 1000 steps without repeating first step
ETITLE: TS BOND ANGLE DIHED IMPRP ELECT VDW BOUNDARY MISC KINETIC TOTAL TEMP POTENTIAL TOTAL3 TEMPAVG PRESSURE GPRESSURE VOLUME PRESSAVG GPRESSAVG
ENERGY: 30000 169.2208 512.4321 498.4492 32.7348 -1362.7710 -99.0870 0.0000 0.0000 617.9828 368.9617 289.4212 -249.0212 376.5596 293.8201 49.0582 50.7690 216000.0000 1.5631 1.5710
TCL: namdcph) Proposal rejected.
TCL: Running for 1000 steps without repeating first step
TCL: namdcph) Proposal rejected.
TCL: Running for 1000 steps without repeating first step
TCL: namdcph) Proposal rejected.
TCL: Running for 1000 steps without repeating first step
TCL: namdcph) Proposal rejected.
TCL: Running for 1000 steps without repeating first step
TCL: namdcph) Proposal rejected.
TCL: Running for 1000 steps without repeating first step
ETITLE: TS BOND ANGLE DIHED IMPRP ELECT VDW BOUNDARY MISC KINETIC TOTAL TEMP POTENTIAL TOTAL3 TEMPAVG PRESSURE GPRESSURE VOLUME PRESSAVG GPRESSAVG
ENERGY: 35000 157.4764 499.1223 485.9694 37.6856 -1366.6894 -93.6600 0.0000 0.0000 625.2316 345.1359 292.8161 -280.0957 353.0208 295.4237 -77.5730 -76.4738 216000.0000 -3.8434 -3.8417
TCL: namdcph) Proposal rejected.
TCL: Running for 1000 steps without repeating first step
TCL: namdcph) Proposal rejected.
TCL: Running for 1000 steps without repeating first step
TCL: namdcph) Proposal rejected.
TCL: Running for 1000 steps without repeating first step
TCL: namdcph) Proposal rejected.
TCL: Running for 1000 steps without repeating first step
TCL: namdcph) Proposal rejected.
TCL: Running for 1000 steps without repeating first step
ETITLE: TS BOND ANGLE DIHED IMPRP ELECT VDW BOUNDARY MISC KINETIC TOTAL TEMP POTENTIAL TOTAL3 TEMPAVG PRESSURE GPRESSURE VOLUME PRESSAVG GPRESSAVG
ENERGY: 40000 164.4674 505.0830 486.6396 32.7602 -1325.2230 -110.2294 0.0000 0.0000 627.1569 380.6547 293.7178 -246.5022 387.3620 299.6867 47.8886 49.0062 216000.0000 -5.4360 -5.4348
TCL: namdcph) Proposal rejected.
TCL: Running for 1000 steps without repeating first step
TCL: namdcph) Proposal rejected.
TCL: Running for 1000 steps without repeating first step
TCL: namdcph) Proposal rejected.
TCL: Running for 1000 steps without repeating first step
TCL: namdcph) Proposal rejected.
TCL: Running for 1000 steps without repeating first step
TCL: namdcph) Proposal rejected.
TCL: Running for 1000 steps without repeating first step
ETITLE: TS BOND ANGLE DIHED IMPRP ELECT VDW BOUNDARY MISC KINETIC TOTAL TEMP POTENTIAL TOTAL3 TEMPAVG PRESSURE GPRESSURE VOLUME PRESSAVG GPRESSAVG
ENERGY: 45000 183.0203 518.2910 502.0733 34.3348 -1369.0562 -108.2663 0.0000 0.0000 664.6141 425.0110 311.2601 -239.6030 434.5870 298.4946 -124.6569 -122.8199 216000.0000 -4.5466 -4.5435
TCL: namdcph) Proposal rejected.
TCL: Running for 1000 steps without repeating first step
TCL: namdcph) Proposal rejected.
TCL: Running for 1000 steps without repeating first step
TCL: namdcph) Proposal rejected.
TCL: Running for 1000 steps without repeating first step
TCL: namdcph) Proposal rejected.
TCL: Running for 1000 steps without repeating first step
TCL: namdcph) Proposal rejected.
TCL: Running for 1000 steps without repeating first step
ETITLE: TS BOND ANGLE DIHED IMPRP ELECT VDW BOUNDARY MISC KINETIC TOTAL TEMP POTENTIAL TOTAL3 TEMPAVG PRESSURE GPRESSURE VOLUME PRESSAVG GPRESSAVG
ENERGY: 50000 152.2514 504.4410 489.4204 27.7198 -1355.7453 -106.4040 0.0000 0.0000 662.2573 373.9408 310.1564 -288.3166 383.6389 298.0533 -66.6218 -66.5124 216000.0000 -2.7923 -2.8058
TCL: namdcph) Proposal rejected.
TCL: Running for 1000 steps without repeating first step
TCL: namdcph) Proposal rejected.
TCL: Running for 1000 steps without repeating first step
TCL: namdcph) Proposal rejected.
TCL: Running for 1000 steps without repeating first step
TCL: namdcph) Proposal rejected.
TCL: Running for 1000 steps without repeating first step
TCL: namdcph) Proposal rejected.
TCL: Running for 1000 steps without repeating first step
ETITLE: TS BOND ANGLE DIHED IMPRP ELECT VDW BOUNDARY MISC KINETIC TOTAL TEMP POTENTIAL TOTAL3 TEMPAVG PRESSURE GPRESSURE VOLUME PRESSAVG GPRESSAVG
ENERGY: 55000 147.8224 504.0345 468.0917 29.4816 -1351.9509 -77.1657 0.0000 0.0000 639.5334 359.8469 299.5140 -279.6865 367.8582 297.3424 157.8582 158.3463 216000.0000 -5.9644 -5.9606
TCL: namdcph) Proposal rejected.
TCL: Running for 1000 steps without repeating first step
TCL: namdcph) Proposal rejected.
TCL: Running for 1000 steps without repeating first step
TCL: namdcph) Proposal rejected.
TCL: Running for 1000 steps without repeating first step
TCL: namdcph) Proposal rejected.
TCL: Running for 1000 steps without repeating first step
TCL: namdcph) Proposal rejected.
TCL: Running for 1000 steps without repeating first step
ETITLE: TS BOND ANGLE DIHED IMPRP ELECT VDW BOUNDARY MISC KINETIC TOTAL TEMP POTENTIAL TOTAL3 TEMPAVG PRESSURE GPRESSURE VOLUME PRESSAVG GPRESSAVG
ENERGY: 60000 159.8094 510.1314 491.4628 28.8835 -1356.8645 -102.0263 0.0000 0.0000 620.6731 352.0695 290.6811 -268.6036 359.8857 293.2860 -7.5920 -9.5654 216000.0000 -6.7832 -6.7697
TCL: namdcph) Proposal rejected.
TCL: Running for 1000 steps without repeating first step
TCL: namdcph) Proposal rejected.
TCL: Running for 1000 steps without repeating first step
TCL: namdcph) Proposal rejected.
TCL: Running for 1000 steps without repeating first step
TCL: namdcph) Proposal rejected.
TCL: Running for 1000 steps without repeating first step
TCL: namdcph) Proposal rejected.
TCL: Running for 1000 steps without repeating first step
ETITLE: TS BOND ANGLE DIHED IMPRP ELECT VDW BOUNDARY MISC KINETIC TOTAL TEMP POTENTIAL TOTAL3 TEMPAVG PRESSURE GPRESSURE VOLUME PRESSAVG GPRESSAVG
ENERGY: 65000 153.8958 522.3922 486.5616 32.1053 -1335.9184 -118.9636 0.0000 0.0000 628.3098 368.3828 294.2577 -259.9271 377.3294 296.2075 38.9201 36.2062 216000.0000 -6.9164 -6.9146
TCL: namdcph) Proposal rejected.
TCL: Running for 1000 steps without repeating first step
TCL: namdcph) Proposal rejected.
TCL: Running for 1000 steps without repeating first step
TCL: namdcph) Proposal rejected.
TCL: Running for 1000 steps without repeating first step
TCL: namdcph) Proposal rejected.
TCL: Running for 1000 steps without repeating first step
TCL: namdcph) Proposal rejected.
TCL: Running for 1000 steps without repeating first step
ETITLE: TS BOND ANGLE DIHED IMPRP ELECT VDW BOUNDARY MISC KINETIC TOTAL TEMP POTENTIAL TOTAL3 TEMPAVG PRESSURE GPRESSURE VOLUME PRESSAVG GPRESSAVG
ENERGY: 70000 165.0480 514.6861 489.9588 36.9359 -1340.5400 -128.3940 0.0000 0.0000 640.1042 377.7990 299.7814 -262.3053 385.3827 303.3258 -115.8725 -114.7998 216000.0000 -4.9184 -4.9143
TCL: namdcph) Proposal rejected.
TCL: Running for 1000 steps without repeating first step
TCL: namdcph) Proposal rejected.
TCL: Running for 1000 steps without repeating first step
TCL: namdcph) Proposal rejected.
TCL: Running for 1000 steps without repeating first step
TCL: namdcph) Proposal rejected.
TCL: Running for 1000 steps without repeating first step
TCL: namdcph) Proposal rejected.
TCL: Running for 1000 steps without repeating first step
ETITLE: TS BOND ANGLE DIHED IMPRP ELECT VDW BOUNDARY MISC KINETIC TOTAL TEMP POTENTIAL TOTAL3 TEMPAVG PRESSURE GPRESSURE VOLUME PRESSAVG GPRESSAVG
ENERGY: 75000 167.0018 504.4700 471.3152 35.3533 -1373.8227 -107.7835 0.0000 0.0000 645.4255 341.9594 302.2735 -303.4661 351.2748 295.0869 98.8181 100.3446 216000.0000 -4.6321 -4.6462
TCL: namdcph) Proposal rejected.
TCL: Running for 1000 steps without repeating first step
TCL: namdcph) Proposal rejected.
TCL: Running for 1000 steps without repeating first step
TCL: namdcph) Proposal rejected.
TCL: Running for 1000 steps without repeating first step
TCL: namdcph) Proposal rejected.
TCL: Running for 1000 steps without repeating first step
TCL: namdcph) Proposal rejected.
TCL: Running for 1000 steps without repeating first step
ETITLE: TS BOND ANGLE DIHED IMPRP ELECT VDW BOUNDARY MISC KINETIC TOTAL TEMP POTENTIAL TOTAL3 TEMPAVG PRESSURE GPRESSURE VOLUME PRESSAVG GPRESSAVG
ENERGY: 80000 150.4276 535.6163 475.3217 35.5154 -1366.4235 -93.5118 0.0000 0.0000 653.8201 390.7659 306.2050 -263.0542 399.4628 297.2116 6.4129 3.9095 216000.0000 -4.0453 -4.0387
TCL: namdcph) Proposal rejected.
TCL: Running for 1000 steps without repeating first step
TCL: namdcph) Proposal rejected.
TCL: Running for 1000 steps without repeating first step
TCL: namdcph) Proposal rejected.
TCL: Running for 1000 steps without repeating first step
TCL: namdcph) Proposal rejected.
TCL: Running for 1000 steps without repeating first step
TCL: namdcph) Proposal rejected.
TCL: Running for 1000 steps without repeating first step
ETITLE: TS BOND ANGLE DIHED IMPRP ELECT VDW BOUNDARY MISC KINETIC TOTAL TEMP POTENTIAL TOTAL3 TEMPAVG PRESSURE GPRESSURE VOLUME PRESSAVG GPRESSAVG
ENERGY: 85000 174.9309 504.8516 494.1480 34.0430 -1361.4699 -111.3610 0.0000 0.0000 606.5806 341.7233 284.0812 -264.8573 348.9403 299.9704 -130.6061 -128.9855 216000.0000 -10.4736 -10.4692
TCL: namdcph) Proposal rejected.
TCL: Running for 1000 steps without repeating first step
TCL: namdcph) Proposal rejected.
TCL: Running for 1000 steps without repeating first step
TCL: namdcph) Proposal rejected.
TCL: Running for 1000 steps without repeating first step
TCL: namdcph) Proposal rejected.
TCL: Running for 1000 steps without repeating first step
TCL: namdcph) Proposal rejected.
TCL: Running for 1000 steps without repeating first step
ETITLE: TS BOND ANGLE DIHED IMPRP ELECT VDW BOUNDARY MISC KINETIC TOTAL TEMP POTENTIAL TOTAL3 TEMPAVG PRESSURE GPRESSURE VOLUME PRESSAVG GPRESSAVG
ENERGY: 90000 152.6739 503.9618 492.0460 32.9322 -1355.4253 -117.7384 0.0000 0.0000 630.7967 339.2467 295.4224 -291.5500 347.9395 298.4505 -72.7036 -71.8874 216000.0000 -7.1726 -7.1647
TCL: namdcph) Proposal rejected.
TCL: Running for 1000 steps without repeating first step
TCL: namdcph) Proposal rejected.
TCL: Running for 1000 steps without repeating first step
TCL: namdcph) Proposal rejected.
TCL: Running for 1000 steps without repeating first step
TCL: namdcph) Proposal rejected.
TCL: Running for 1000 steps without repeating first step
TCL: namdcph) Proposal rejected.
TCL: Running for 1000 steps without repeating first step
ETITLE: TS BOND ANGLE DIHED IMPRP ELECT VDW BOUNDARY MISC KINETIC TOTAL TEMP POTENTIAL TOTAL3 TEMPAVG PRESSURE GPRESSURE VOLUME PRESSAVG GPRESSAVG
ENERGY: 95000 170.9554 510.2107 507.4159 44.7523 -1385.2730 -106.8402 0.0000 0.0000 648.7591 389.9802 303.8348 -258.7789 398.1438 297.1126 25.4042 24.7228 216000.0000 -10.0528 -10.0469
TCL: namdcph) Proposal rejected.
TCL: Running for 1000 steps without repeating first step
TCL: namdcph) Proposal rejected.
TCL: Running for 1000 steps without repeating first step
TCL: namdcph) Proposal rejected.
TCL: Running for 1000 steps without repeating first step
TCL: namdcph) Proposal rejected.
TCL: Running for 1000 steps without repeating first step
TCL: namdcph) Proposal rejected.
TCL: Running for 1000 steps without repeating first step
ETITLE: TS BOND ANGLE DIHED IMPRP ELECT VDW BOUNDARY MISC KINETIC TOTAL TEMP POTENTIAL TOTAL3 TEMPAVG PRESSURE GPRESSURE VOLUME PRESSAVG GPRESSAVG
ENERGY: 100000 151.7946 507.7327 500.5404 44.2415 -1365.8953 -83.9305 0.0000 0.0000 655.5274 410.0108 307.0046 -245.5167 418.9831 299.7970 96.7074 97.0625 216000.0000 -6.3166 -6.3141
TCL: namdcph) Proposal rejected.
TCL: Running for 1000 steps without repeating first step
TCL: namdcph) Proposal rejected.
TCL: Running for 1000 steps without repeating first step
TCL: namdcph) Proposal rejected.
TCL: Running for 1000 steps without repeating first step
TCL: namdcph) Proposal rejected.
TCL: Running for 1000 steps without repeating first step
TCL: namdcph) Proposal rejected.
TCL: Running for 1000 steps without repeating first step
ETITLE: TS BOND ANGLE DIHED IMPRP ELECT VDW BOUNDARY MISC KINETIC TOTAL TEMP POTENTIAL TOTAL3 TEMPAVG PRESSURE GPRESSURE VOLUME PRESSAVG GPRESSAVG
ENERGY: 105000 146.8907 493.6871 505.0374 36.1264 -1348.4511 -110.3120 0.0000 0.0000 612.2377 335.2162 286.7306 -277.0215 342.5303 295.1391 56.2338 57.3314 216000.0000 -7.1939 -7.1703
TCL: namdcph) Proposal rejected.
TCL: Running for 1000 steps without repeating first step
TCL: namdcph) Proposal rejected.
TCL: Running for 1000 steps without repeating first step
TCL: namdcph) Proposal rejected.
TCL: Running for 1000 steps without repeating first step
TCL: namdcph) Proposal rejected.
TCL: Running for 1000 steps without repeating first step
TCL: namdcph) Proposal rejected.
TCL: Running for 1000 steps without repeating first step
ETITLE: TS BOND ANGLE DIHED IMPRP ELECT VDW BOUNDARY MISC KINETIC TOTAL TEMP POTENTIAL TOTAL3 TEMPAVG PRESSURE GPRESSURE VOLUME PRESSAVG GPRESSAVG
ENERGY: 110000 156.3440 496.3138 486.9433 35.2325 -1339.0169 -114.1442 0.0000 0.0000 645.9907 367.6632 302.5382 -278.3275 374.6827 293.9221 -69.1016 -65.8011 216000.0000 -9.9409 -9.9485
TCL: namdcph) Proposal rejected.
TCL: Running for 1000 steps without repeating first step
TCL: namdcph) Proposal rejected.
TCL: Running for 1000 steps without repeating first step
TCL: namdcph) Proposal rejected.
TCL: Running for 1000 steps without repeating first step
TCL: namdcph) Proposal rejected.
TCL: Running for 1000 steps without repeating first step
TCL: namdcph) Proposal rejected.
TCL: Running for 1000 steps without repeating first step
ETITLE: TS BOND ANGLE DIHED IMPRP ELECT VDW BOUNDARY MISC KINETIC TOTAL TEMP POTENTIAL TOTAL3 TEMPAVG PRESSURE GPRESSURE VOLUME PRESSAVG GPRESSAVG
ENERGY: 115000 179.8339 531.5462 491.7929 39.9394 -1376.2875 -111.0197 0.0000 0.0000 646.7348 402.5399 302.8867 -244.1948 410.5418 298.6752 -32.3666 -30.4179 216000.0000 -8.9604 -8.9716
TCL: namdcph) Proposal rejected.
TCL: Running for 1000 steps without repeating first step
TCL: namdcph) Proposal rejected.
TCL: Running for 1000 steps without repeating first step
TCL: namdcph) Proposal rejected.
TCL: Running for 1000 steps without repeating first step
TCL: namdcph) Proposal rejected.
TCL: Running for 1000 steps without repeating first step
TCL: namdcph) Proposal rejected.
TCL: Running for 1000 steps without repeating first step
ETITLE: TS BOND ANGLE DIHED IMPRP ELECT VDW BOUNDARY MISC KINETIC TOTAL TEMP POTENTIAL TOTAL3 TEMPAVG PRESSURE GPRESSURE VOLUME PRESSAVG GPRESSAVG
ENERGY: 120000 164.8570 517.7618 508.4708 44.5836 -1373.1039 -83.5702 0.0000 0.0000 648.0647 427.0638 303.5095 -221.0009 434.8772 303.8220 10.5279 12.0787 216000.0000 -9.5250 -9.5289
TCL: namdcph) Proposal rejected.
TCL: Running for 1000 steps without repeating first step
TCL: namdcph) Proposal rejected.
TCL: Running for 1000 steps without repeating first step
TCL: namdcph) Proposal rejected.
TCL: Running for 1000 steps without repeating first step
TCL: namdcph) Proposal rejected.
TCL: Running for 1000 steps without repeating first step
TCL: namdcph) Proposal rejected.
TCL: Running for 1000 steps without repeating first step
ETITLE: TS BOND ANGLE DIHED IMPRP ELECT VDW BOUNDARY MISC KINETIC TOTAL TEMP POTENTIAL TOTAL3 TEMPAVG PRESSURE GPRESSURE VOLUME PRESSAVG GPRESSAVG
ENERGY: 125000 151.6905 516.1224 507.2249 43.2476 -1362.6688 -104.5601 0.0000 0.0000 636.5271 387.5834 298.1061 -248.9437 396.2400 302.5030 -10.4904 -8.8892 216000.0000 -7.7755 -7.7911
TCL: namdcph) Proposal rejected.
TCL: Running for 1000 steps without repeating first step
TCL: namdcph) Proposal rejected.
TCL: Running for 1000 steps without repeating first step
TCL: namdcph) Proposal rejected.
TCL: Running for 1000 steps without repeating first step
TCL: namdcph) Proposal rejected.
TCL: Running for 1000 steps without repeating first step
TCL: namdcph) Proposal rejected.
TCL: Running for 1000 steps without repeating first step
ETITLE: TS BOND ANGLE DIHED IMPRP ELECT VDW BOUNDARY MISC KINETIC TOTAL TEMP POTENTIAL TOTAL3 TEMPAVG PRESSURE GPRESSURE VOLUME PRESSAVG GPRESSAVG
ENERGY: 130000 157.2680 485.4113 488.0550 36.4608 -1353.5768 -93.8661 0.0000 0.0000 659.0695 378.8217 308.6634 -280.2478 386.5564 292.5799 109.9385 110.3054 216000.0000 -6.2065 -6.2102
TCL: namdcph) Proposal rejected.
TCL: Running for 1000 steps without repeating first step
TCL: namdcph) Proposal rejected.
TCL: Running for 1000 steps without repeating first step
TCL: namdcph) Proposal rejected.
TCL: Running for 1000 steps without repeating first step
TCL: namdcph) Proposal rejected.
TCL: Running for 1000 steps without repeating first step
TCL: namdcph) Proposal rejected.
TCL: Running for 1000 steps without repeating first step
ETITLE: TS BOND ANGLE DIHED IMPRP ELECT VDW BOUNDARY MISC KINETIC TOTAL TEMP POTENTIAL TOTAL3 TEMPAVG PRESSURE GPRESSURE VOLUME PRESSAVG GPRESSAVG
ENERGY: 135000 155.6004 528.8480 502.4591 27.9225 -1383.2371 -103.5220 0.0000 0.0000 614.7102 342.7811 287.8885 -271.9291 349.7800 292.6563 -129.6210 -127.1267 216000.0000 -5.2321 -5.2448
TCL: namdcph) Proposal rejected.
TCL: Running for 1000 steps without repeating first step
TCL: namdcph) Proposal rejected.
TCL: Running for 1000 steps without repeating first step
TCL: namdcph) Proposal rejected.
TCL: Running for 1000 steps without repeating first step
TCL: namdcph) Proposal rejected.
TCL: Running for 1000 steps without repeating first step
TCL: namdcph) Proposal rejected.
TCL: Running for 1000 steps without repeating first step
ETITLE: TS BOND ANGLE DIHED IMPRP ELECT VDW BOUNDARY MISC KINETIC TOTAL TEMP POTENTIAL TOTAL3 TEMPAVG PRESSURE GPRESSURE VOLUME PRESSAVG GPRESSAVG
ENERGY: 140000 160.9789 511.9596 489.4650 35.7310 -1359.6218 -97.4824 0.0000 0.0000 657.4818 398.5122 307.9199 -258.9696 406.0188 301.0602 102.4575 103.4418 216000.0000 -6.8237 -6.8236
TCL: namdcph) Proposal rejected.
TCL: Running for 1000 steps without repeating first step
TCL: namdcph) Proposal rejected.
TCL: Running for 1000 steps without repeating first step
TCL: namdcph) Proposal rejected.
TCL: Running for 1000 steps without repeating first step
TCL: namdcph) Proposal rejected.
TCL: Running for 1000 steps without repeating first step
TCL: namdcph) Proposal rejected.
TCL: Running for 1000 steps without repeating first step
ETITLE: TS BOND ANGLE DIHED IMPRP ELECT VDW BOUNDARY MISC KINETIC TOTAL TEMP POTENTIAL TOTAL3 TEMPAVG PRESSURE GPRESSURE VOLUME PRESSAVG GPRESSAVG
ENERGY: 145000 167.6851 503.5666 499.9334 43.6747 -1370.1313 -101.8299 0.0000 0.0000 613.6410 356.5397 287.3878 -257.1014 364.7434 305.2635 61.8193 61.6548 216000.0000 -9.9340 -9.9388
TCL: namdcph) Proposal rejected.
TCL: Running for 1000 steps without repeating first step
TCL: namdcph) Proposal rejected.
TCL: Running for 1000 steps without repeating first step
TCL: namdcph) Proposal rejected.
TCL: Running for 1000 steps without repeating first step
TCL: namdcph) Proposal rejected.
TCL: Running for 1000 steps without repeating first step
TCL: namdcph) Proposal rejected.
TCL: Running for 1000 steps without repeating first step
ETITLE: TS BOND ANGLE DIHED IMPRP ELECT VDW BOUNDARY MISC KINETIC TOTAL TEMP POTENTIAL TOTAL3 TEMPAVG PRESSURE GPRESSURE VOLUME PRESSAVG GPRESSAVG
ENERGY: 150000 164.7052 500.7640 496.4674 31.6666 -1362.8852 -90.0015 0.0000 0.0000 613.0405 353.7569 287.1066 -259.2836 362.2936 294.0099 -95.1149 -94.6156 216000.0000 -12.1633 -12.1577
TCL: namdcph) Proposal rejected.
TCL: Running for 1000 steps without repeating first step
TCL: namdcph) Proposal rejected.
TCL: Running for 1000 steps without repeating first step
TCL: namdcph) Proposal rejected.
TCL: Running for 1000 steps without repeating first step
TCL: namdcph) Proposal rejected.
TCL: Running for 1000 steps without repeating first step
TCL: namdcph) Proposal rejected.
TCL: Running for 1000 steps without repeating first step
ETITLE: TS BOND ANGLE DIHED IMPRP ELECT VDW BOUNDARY MISC KINETIC TOTAL TEMP POTENTIAL TOTAL3 TEMPAVG PRESSURE GPRESSURE VOLUME PRESSAVG GPRESSAVG
ENERGY: 155000 158.4660 475.7931 489.1139 36.6311 -1352.4993 -118.8523 0.0000 0.0000 621.8558 310.5082 291.2350 -311.3476 318.8041 292.7222 -61.8394 -60.2783 216000.0000 -9.9743 -9.9629
TCL: namdcph) Proposal rejected.
TCL: Running for 1000 steps without repeating first step
TCL: namdcph) Proposal rejected.
TCL: Running for 1000 steps without repeating first step
TCL: namdcph) Proposal rejected.
TCL: Running for 1000 steps without repeating first step
TCL: namdcph) Proposal rejected.
TCL: Running for 1000 steps without repeating first step
TCL: namdcph) Proposal rejected.
TCL: Running for 1000 steps without repeating first step
ETITLE: TS BOND ANGLE DIHED IMPRP ELECT VDW BOUNDARY MISC KINETIC TOTAL TEMP POTENTIAL TOTAL3 TEMPAVG PRESSURE GPRESSURE VOLUME PRESSAVG GPRESSAVG
ENERGY: 160000 155.2216 494.1717 497.8248 34.5763 -1365.3115 -83.3462 0.0000 0.0000 643.7418 376.8785 301.4850 -266.8632 383.2461 294.9430 -0.5042 -1.4476 216000.0000 -5.8450 -5.8628
TCL: namdcph) Proposal rejected.
TCL: Running for 1000 steps without repeating first step
TCL: namdcph) Proposal rejected.
TCL: Running for 1000 steps without repeating first step
TCL: namdcph) Proposal rejected.
TCL: Running for 1000 steps without repeating first step
TCL: namdcph) Proposal rejected.
TCL: Running for 1000 steps without repeating first step
TCL: namdcph) Proposal rejected.
TCL: Running for 1000 steps without repeating first step
ETITLE: TS BOND ANGLE DIHED IMPRP ELECT VDW BOUNDARY MISC KINETIC TOTAL TEMP POTENTIAL TOTAL3 TEMPAVG PRESSURE GPRESSURE VOLUME PRESSAVG GPRESSAVG
ENERGY: 165000 178.0000 465.2328 484.2236 30.2150 -1358.5541 -93.7539 0.0000 0.0000 618.0588 323.4222 289.4568 -294.6366 330.9671 298.8909 -207.3318 -203.6753 216000.0000 -5.8200 -5.8194
TCL: namdcph) Proposal rejected.
TCL: Running for 1000 steps without repeating first step
TCL: namdcph) Proposal rejected.
TCL: Running for 1000 steps without repeating first step
TCL: namdcph) Proposal rejected.
TCL: Running for 1000 steps without repeating first step
TCL: namdcph) Proposal rejected.
TCL: Running for 1000 steps without repeating first step
TCL: namdcph) Proposal rejected.
TCL: Running for 1000 steps without repeating first step
ETITLE: TS BOND ANGLE DIHED IMPRP ELECT VDW BOUNDARY MISC KINETIC TOTAL TEMP POTENTIAL TOTAL3 TEMPAVG PRESSURE GPRESSURE VOLUME PRESSAVG GPRESSAVG
ENERGY: 170000 168.7988 517.7672 504.5783 39.5997 -1339.3538 -125.4421 0.0000 0.0000 635.5485 401.4965 297.6478 -234.0521 409.1821 295.4496 -60.8904 -63.5688 216000.0000 -7.4336 -7.4355
TCL: namdcph) Proposal rejected.
TCL: Running for 1000 steps without repeating first step
TCL: namdcph) Proposal rejected.
TCL: Running for 1000 steps without repeating first step
TCL: namdcph) Proposal rejected.
TCL: Running for 1000 steps without repeating first step
TCL: namdcph) Proposal rejected.
TCL: Running for 1000 steps without repeating first step
TCL: namdcph) Proposal rejected.
TCL: Running for 1000 steps without repeating first step
ETITLE: TS BOND ANGLE DIHED IMPRP ELECT VDW BOUNDARY MISC KINETIC TOTAL TEMP POTENTIAL TOTAL3 TEMPAVG PRESSURE GPRESSURE VOLUME PRESSAVG GPRESSAVG
ENERGY: 175000 176.8852 476.6127 492.7172 35.0332 -1349.9463 -98.1250 0.0000 0.0000 658.7935 391.9706 308.5342 -266.8229 400.9465 295.0381 -11.6349 -12.1572 216000.0000 -4.5746 -4.5787
TCL: namdcph) Proposal rejected.
TCL: Running for 1000 steps without repeating first step
TCL: namdcph) Proposal rejected.
TCL: Running for 1000 steps without repeating first step
TCL: namdcph) Proposal rejected.
TCL: Running for 1000 steps without repeating first step
TCL: namdcph) Proposal rejected.
TCL: Running for 1000 steps without repeating first step
TCL: namdcph) Proposal rejected.
TCL: Running for 1000 steps without repeating first step
ETITLE: TS BOND ANGLE DIHED IMPRP ELECT VDW BOUNDARY MISC KINETIC TOTAL TEMP POTENTIAL TOTAL3 TEMPAVG PRESSURE GPRESSURE VOLUME PRESSAVG GPRESSAVG
ENERGY: 180000 160.8126 518.5572 493.8117 36.1118 -1363.6776 -91.6076 0.0000 0.0000 643.4282 397.4363 301.3381 -245.9919 405.9346 294.6666 -22.0090 -21.5982 216000.0000 -7.3203 -7.3327
TCL: namdcph) Proposal rejected.
TCL: Running for 1000 steps without repeating first step
TCL: namdcph) Proposal rejected.
TCL: Running for 1000 steps without repeating first step
TCL: namdcph) Proposal rejected.
TCL: Running for 1000 steps without repeating first step
TCL: namdcph) Proposal rejected.
TCL: Running for 1000 steps without repeating first step
TCL: namdcph) Proposal rejected.
TCL: Running for 1000 steps without repeating first step
ETITLE: TS BOND ANGLE DIHED IMPRP ELECT VDW BOUNDARY MISC KINETIC TOTAL TEMP POTENTIAL TOTAL3 TEMPAVG PRESSURE GPRESSURE VOLUME PRESSAVG GPRESSAVG
ENERGY: 185000 182.8979 480.8199 489.7939 32.6273 -1373.9438 -100.2850 0.0000 0.0000 649.1824 361.0927 304.0330 -288.0898 368.3691 303.8899 -39.7161 -39.6930 216000.0000 -8.4087 -8.4061
TCL: namdcph) Proposal rejected.
TCL: Running for 1000 steps without repeating first step
TCL: namdcph) Proposal rejected.
TCL: Running for 1000 steps without repeating first step
TCL: namdcph) Proposal rejected.
TCL: Running for 1000 steps without repeating first step
TCL: namdcph) Proposal rejected.
TCL: Running for 1000 steps without repeating first step
TCL: namdcph) Proposal rejected.
TCL: Running for 1000 steps without repeating first step
ETITLE: TS BOND ANGLE DIHED IMPRP ELECT VDW BOUNDARY MISC KINETIC TOTAL TEMP POTENTIAL TOTAL3 TEMPAVG PRESSURE GPRESSURE VOLUME PRESSAVG GPRESSAVG
ENERGY: 190000 178.6178 519.2745 500.5468 36.1645 -1347.7453 -110.5899 0.0000 0.0000 644.9610 421.2294 302.0560 -223.7316 428.3752 296.5731 11.2935 9.7106 216000.0000 -3.0352 -3.0294
TCL: namdcph) Proposal rejected.
TCL: Running for 1000 steps without repeating first step
TCL: namdcph) Proposal rejected.
TCL: Running for 1000 steps without repeating first step
TCL: namdcph) Proposal rejected.
TCL: Running for 1000 steps without repeating first step
TCL: namdcph) Proposal rejected.
TCL: Running for 1000 steps without repeating first step
TCL: namdcph) Proposal rejected.
TCL: Running for 1000 steps without repeating first step
