Info: SIMULATION PARAMETERS:
Info: TIMESTEP               1
Info: NUMBER OF STEPS        0
Info: STEPS PER CYCLE        20
Info: PERIODIC CELL BASIS 1  60 0 0
Info: PERIODIC CELL BASIS 2  0 60 0
Info: PERIODIC CELL BASIS 3  0 0 60
Info: PERIODIC CELL CENTER   0 0 0
Info: WRAPPING WATERS AROUND PERIODIC BOUNDARIES ON OUTPUT.
Info: WRAPPING ALL CLUSTERS AROUND PERIODIC BOUNDARIES ON OUTPUT.
Info: FIRST LDB TIMESTEP     100
Info: LAST LDB TIMESTEP     -1
Info: HOM BACKGROUND SCALING 1
Info: PME BACKGROUND SCALING 1
Info: MIN ATOMS PER PATCH    40
Info: VELOCITY FILE          7/Pre7_0.vel
Info: CENTER OF MASS MOVING INITIALLY? NO
Info: DIELECTRIC             1
Info: EXCLUDE                SCALED ONE-FOUR
Info: 1-4 ELECTROSTATICS SCALED BY 1
Info: MODIFIED 1-4 VDW PARAMETERS WILL BE USED
Info: DCD FILENAME           7/Pre7_1.dcd
Info: DCD FREQUENCY          5000
Info: DCD FIRST STEP         5000
Info: DCD FILE WILL CONTAIN UNIT CELL DATA
Info: NO EXTENDED SYSTEM TRAJECTORY OUTPUT
Info: NO VELOCITY DCD OUTPUT
Info: NO FORCE DCD OUTPUT
Info: OUTPUT FILENAME        7/Pre7_1
Info: BINARY OUTPUT FILES WILL BE USED
Info: NO RESTART FILE
Info: SWITCHING ACTIVE
Info: VDW FORCE SWITCHING ACTIVE
Info: SWITCHING ON           10
Info: SWITCHING OFF          12
Info: PAIRLIST DISTANCE      14
Info: PAIRLIST SHRINK RATE   0.01
Info: PAIRLIST GROW RATE     0.01
Info: PAIRLIST TRIGGER       0.3
Info: PAIRLISTS PER CYCLE    2
Info: PAIRLISTS ENABLED
Info: MARGIN                 2
Info: HYDROGEN GROUP CUTOFF  2.5
Info: PATCH DIMENSION        18.5
Info: ENERGY OUTPUT STEPS    5000
Info: CROSSTERM ENERGY INCLUDED IN DIHEDRAL
Info: TIMING OUTPUT STEPS    50000
Info: THERMODYNAMIC INTEGRATION (TI) ON
Info: TI LAMBDA VALUE     0
Info: TI INTRA-ALCHEMICAL NON-BONDED INTERACTIONS WILL BE DECOUPLED
Info: TI INTRA-ALCHEMICAL BONDED INTERACTIONS WILL BE DECOUPLED
Info: TI VDW SHIFTING COEFFICIENT 0
Info: TI ELEC. ACTIVE FOR ANNIHILATED PARTICLES BETWEEN LAMBDA = 0 AND LAMBDA = 1
Info: TI ELEC. ACTIVE FOR EXNIHILATED PARTICLES BETWEEN LAMBDA = 0 AND LAMBDA = 1
Info: TI VDW ACTIVE FOR ANNIHILATED PARTICLES BETWEEN LAMBDA = 0 AND LAMBDA = 1
Info: TI VDW ACTIVE FOR EXNIHILATED PARTICLES BETWEEN LAMBDA = 0 AND LAMBDA = 1
Info: TI BOND ACTIVE FOR ANNIHILATED PARTICLES BETWEEN LAMBDA = 0 AND LAMBDA = 1
Info: TI BOND ACTIVE FOR EXNIHILATED PARTICLES BETWEEN LAMBDA = 0 AND LAMBDA = 1
Info: LANGEVIN DYNAMICS ACTIVE
Info: LANGEVIN TEMPERATURE   298
Info: LANGEVIN USING BBK INTEGRATOR
Info: LANGEVIN DAMPING COEFFICIENT IS 1 INVERSE PS
Info: LANGEVIN DYNAMICS NOT APPLIED TO HYDROGENS
Info: PARTICLE MESH EWALD (PME) ACTIVE
Info: PME TOLERANCE               1e-06
Info: PME EWALD COEFFICIENT       0.257952
Info: PME INTERPOLATION ORDER     4
Info: PME GRID DIMENSIONS         60 60 60
Info: PME MAXIMUM GRID SPACING    1
Info: FULL ELECTROSTATIC EVALUATION FREQUENCY      2
Info: USING VERLET I (r-RESPA) MTS SCHEME.
Info: C1 SPLITTING OF LONG RANGE ELECTROSTATICS
Info: PLACING ATOMS IN PATCHES BY HYDROGEN GROUPS
Info: RIGID BONDS TO HYDROGEN : ALL
Info:         ERROR TOLERANCE : 1e-08
Info:          MAX ITERATIONS : 100
Info: RIGID WATER USING SETTLE ALGORITHM
Info: RANDOM NUMBER SEED     1685294425
Info: USE HYDROGEN BONDS?    NO
Info: COORDINATE PDB         7/Pre7_0.pdb
Info: STRUCTURE FILE         7/Pre7_0.psf
Info: PARAMETER file: CHARMM format!
Info: PARAMETERS             ../../toppar/par_all36_carb.prm
Info: PARAMETERS             ../../toppar/par_all36_cgenff.prm
Info: PARAMETERS             ../../toppar/par_all36_lipid.prm
Info: PARAMETERS             ../../toppar/par_all36_na.prm
Info: PARAMETERS             ../../toppar/par_all36_prot.prm
Info: PARAMETERS             ../../toppar/par_all36_solvent.prm
Info: PARAMETERS             ../../toppar/par_cph36_prot.prm
Info: PARAMETERS             ../../toppar/toppar_all36_carb_glycopeptide.str
Info: PARAMETERS             ../../toppar/toppar_water_ions_namd.str
Info: USING ARITHMETIC MEAN TO COMBINE L-J SIGMA PARAMETERS
Info: BINARY COORDINATES     7/Pre7_0.coor
Info: SKIPPING rtf SECTION IN STREAM FILE
Info: SKIPPING rtf SECTION IN STREAM FILE
Info: SUMMARY OF PARAMETERS:
Info: 925 BONDS
Info: 2696 ANGLES
Info: 6608 DIHEDRAL
Info: 195 IMPROPER
Info: 6 CROSSTERM
Info: 366 VDW
Info: 6 VDW_PAIRS
Info: 0 NBTHOLE_PAIRS
Info: READING EXTRA BONDS FILE 7/namdcph.sw.extrabonds
Info: To read alchdata from file: coordinate pdb file (default)
Info: To read alchflag data from column: 5
Info: LONG-RANGE LJ: APPLYING ANALYTICAL CORRECTIONS TO ENERGY AND PRESSURE
Info: LONG-RANGE LJ: AVERAGE A0 AND B0 COEFFICIENTS 257940 AND 189.542
Info: LONG-RANGE LJ: AVERAGE A1 AND B1 COEFFICIENTS 257940 AND 189.542
Info: STRUCTURE SUMMARY:
Info: 863 ATOMS
Info: 864 BONDS
Info: 1559 ANGLES
Info: 2262 DIHEDRALS
Info: 177 IMPROPERS
Info: 54 CROSSTERMS
Info: 0 EXCLUSIONS
Info: 440 RIGID BONDS
Info: ALCH: 0 ATOMS TO DISAPPEAR IN FINAL STATE
Info: ALCH: 0 ATOMS TO APPEAR IN FINAL STATE
Info: 2149 DEGREES OF FREEDOM
Info: 423 HYDROGEN GROUPS
Info: 4 ATOMS IN LARGEST HYDROGEN GROUP
Info: 423 MIGRATION GROUPS
Info: 4 ATOMS IN LARGEST MIGRATION GROUP
Info: TOTAL MASS = 6022.82 amu
Info: TOTAL CHARGE = 2 e
Info: MASS DENSITY = 0.0463026 g/cm^3
Info: ATOM DENSITY = 0.00399537 atoms/A^3
Info: ADDED 4679 IMPLICIT EXCLUSIONS
Info: NONBONDED TABLE R-SQUARED SPACING: 0.0625
Info: NONBONDED TABLE SIZE: 769 POINTS
Info: REMOVING COM VELOCITY 0.235556 -0.408691 -0.218188
TCL: Setting parameter alchLambdaFreq to 1
Info: NONBONDED TABLE R-SQUARED SPACING: 0.0625
Info: NONBONDED TABLE SIZE: 769 POINTS
TCL: Setting parameter alch to off
Info: NONBONDED TABLE R-SQUARED SPACING: 0.0625
Info: NONBONDED TABLE SIZE: 769 POINTS
TCL: namdcph) initializing constant pH PSF...
TCL: cphpsfgen) creating new alchemical side chain for PP1:918:GLU
TCL: cphpsfgen) merging alchemical sidechains for PP1:918:GLU
TCL: cphpsfgen) creating new alchemical side chain for PP1:921:LYS
TCL: cphpsfgen) merging alchemical sidechains for PP1:921:LYS
TCL: cphpsfgen) creating new alchemical side chain for PP1:933:LYS
TCL: cphpsfgen) merging alchemical sidechains for PP1:933:LYS
TCL: cphpsfgen) creating new alchemical side chain for PP1:936:ASP
TCL: cphpsfgen) merging alchemical sidechains for PP1:936:ASP
TCL: cphpsfgen) creating new alchemical side chain for PP1:947:LYS
TCL: cphpsfgen) merging alchemical sidechains for PP1:947:LYS
TCL: cphpsfgen) creating new alchemical side chain for PP1:964:LYS
TCL: cphpsfgen) merging alchemical sidechains for PP1:964:LYS
TCL: namdcph) ***************************************
TCL: namdcph) CONSTANT pH MD ACTIVE
TCL: namdcph) RESTART FILENAME 7/Pre7_0.cphrst
TCL: namdcph) SYSTEM pH 7
TCL: namdcph) CONSTANT pH CONFIGURATION FILE(S)
TCL: namdcph) ../../toppar/conf_cph36_prot.json
TCL: namdcph) NONEQUILIBRIUM SWITCH PARAMETERS:
TCL: namdcph) ALCHEMICAL FORCE CONSTANT 100.0 kcal/mol-A^2
TCL: namdcph) neMD/MC CRITERION TEMPERATURE 298.0
TCL: namdcph) TEMPORARY FILE INFORMATION:
TCL: namdcph) cpH TOPOLOGY FILE BASENAME 7/namdcph.md
TCL: namdcph) neMD/MC TRAJECTORY BASENAME 7/namdcph.sw
TCL: namdcph) ***************************************
TCL: namdcph) ***************************************
TCL: namdcph) TITRATABLE RESIDUE DEFINITIONS:
TCL: namdcph) HIS ASP GLU CYS LYS
TCL: namdcph) TITRATABLE SYSTEM SUMMARY:
TCL: namdcph) 6 RESIDUE(S)
TCL: namdcph) 16 PROTONATION SITE(S)
TCL: namdcph) ***************************************
TCL: namdcph) segid:resid:resname : state : pKai
TCL: namdcph) PP1:918:GLU         :     D : 4.68
TCL: namdcph) PP1:921:LYS         :     P : 10.47
TCL: namdcph) PP1:933:LYS         :     P : 10.42
TCL: namdcph) PP1:936:ASP         :     D : 3.83
TCL: namdcph) PP1:947:LYS         :     P : 10.47
TCL: namdcph) PP1:964:LYS         :     P : 10.40
TCL: namdcph) ***************************************
TCL: namdcph) *************************************************
TCL: namdcph) CONSTANT pH neMD/MC MOVES:
TCL: namdcph) MAX. ATTEMPTS PER CYCLE: 1
TCL: namdcph) ONE RESIDUE MOVES
TCL: namdcph) move label     : numsteps   weight
TCL: namdcph) PP1:918:GLU    :    75000     1.00
TCL: namdcph) PP1:921:LYS    :    75000     1.00
TCL: namdcph) PP1:933:LYS    :    75000     1.00
TCL: namdcph) PP1:936:ASP    :    75000     1.00
TCL: namdcph) PP1:947:LYS    :    75000     1.00
TCL: namdcph) PP1:964:LYS    :    75000     1.00
TCL: namdcph) *************************************************
TCL: namdcph) clearing extraBondsFile 7/namdcph.sw.extrabonds
TCL: Reloading molecular structure from file 7/namdcph.md.psf and pdb file 7/namdcph.md.pdb
Info: READING EXTRA BONDS FILE 7/namdcph.sw.extrabonds
Info: LONG-RANGE LJ: APPLYING ANALYTICAL CORRECTIONS TO ENERGY AND PRESSURE
Info: LONG-RANGE LJ: AVERAGE A AND B COEFFICIENTS 257940 AND 189.542
Info: STRUCTURE SUMMARY:
Info: 863 ATOMS
Info: 864 BONDS
Info: 1559 ANGLES
Info: 2262 DIHEDRALS
Info: 177 IMPROPERS
Info: 54 CROSSTERMS
Info: 0 EXCLUSIONS
Info: 440 RIGID BONDS
Info: 2149 DEGREES OF FREEDOM
Info: 423 HYDROGEN GROUPS
Info: 4 ATOMS IN LARGEST HYDROGEN GROUP
Info: 423 MIGRATION GROUPS
Info: 4 ATOMS IN LARGEST MIGRATION GROUP
Info: TOTAL MASS = 6022.82 amu
Info: TOTAL CHARGE = 2 e
Info: MASS DENSITY = 0.0463026 g/cm^3
Info: ATOM DENSITY = 0.00399537 atoms/A^3
Info: ADDED 4679 IMPLICIT EXCLUSIONS
Info: NONBONDED TABLE R-SQUARED SPACING: 0.0625
Info: NONBONDED TABLE SIZE: 769 POINTS
TCL: Reinitializing atom data from files with basename 7/namdcph.md
Info: REMOVING COM VELOCITY 0.235556 -0.408691 -0.218188
TCL: Minimizing for 100 steps
ETITLE: TS BOND ANGLE DIHED IMPRP ELECT VDW BOUNDARY MISC KINETIC TOTAL TEMP POTENTIAL TOTAL3 TEMPAVG PRESSURE GPRESSURE VOLUME PRESSAVG GPRESSAVG
ENERGY: 0 169.8298 510.1122 485.9195 32.2608 -1360.0294 -89.3907 0.0000 0.0000 0.0000 -251.2979 0.0000 -251.2979 -251.2979 0.0000 -8.4971 -103.9534 216000.0000 -8.4971 -103.9534
ENERGY: 20 51.2508 212.6784 455.3654 12.4039 -1388.8354 -119.8037 0.0000 0.0000 0.0000 -776.9406 0.0000 -776.9406 -776.9406 0.0000 13.8065 -33.5416 216000.0000 13.8065 -33.5416
ENERGY: 40 45.2179 191.4725 445.4157 11.1402 -1392.7479 -128.3012 0.0000 0.0000 0.0000 -827.8027 0.0000 -827.8027 -827.8027 0.0000 -3.3951 -52.5314 216000.0000 -3.3951 -52.5314
ENERGY: 60 44.0736 177.0861 438.1889 10.5488 -1398.5003 -133.1305 0.0000 0.0000 0.0000 -861.7335 0.0000 -861.7335 -861.7335 0.0000 4.4691 -49.7471 216000.0000 4.4691 -49.7471
ENERGY: 80 44.3733 176.4598 432.4303 10.6726 -1403.0617 -132.4433 0.0000 0.0000 0.0000 -871.5689 0.0000 -871.5689 -871.5689 0.0000 28.7779 -34.6257 216000.0000 28.7779 -34.6257
ENERGY: 100 41.9341 170.3992 431.2074 9.7497 -1402.4009 -134.4452 0.0000 0.0000 0.0000 -883.5558 0.0000 -883.5558 -883.5558 0.0000 14.9006 -39.5163 216000.0000 14.9006 -39.5163
TCL: Setting parameter firstTimeStep to 0
TCL: Running for 1000 steps
ETITLE: TS BOND ANGLE DIHED IMPRP ELECT VDW BOUNDARY MISC KINETIC TOTAL TEMP POTENTIAL TOTAL3 TEMPAVG PRESSURE GPRESSURE VOLUME PRESSAVG GPRESSAVG
ENERGY: 0 41.9341 170.3992 431.2074 9.7497 -1402.4009 -134.4452 0.0000 0.0000 625.7643 -257.7915 293.0655 -883.5558 -257.8677 293.0655 33.2731 35.2076 216000.0000 33.2731 35.2076
TCL: namdcph) Proposal rejected.
TCL: Running for 1000 steps without repeating first step
TCL: namdcph) Proposal rejected.
TCL: Running for 1000 steps without repeating first step
TCL: namdcph) Proposal rejected.
TCL: Running for 1000 steps without repeating first step
TCL: namdcph) Proposal rejected.
TCL: Running for 1000 steps without repeating first step
ETITLE: TS BOND ANGLE DIHED IMPRP ELECT VDW BOUNDARY MISC KINETIC TOTAL TEMP POTENTIAL TOTAL3 TEMPAVG PRESSURE GPRESSURE VOLUME PRESSAVG GPRESSAVG
ENERGY: 5000 153.5662 480.6398 485.4140 31.8388 -1372.0817 -95.8694 0.0000 0.0000 606.7089 290.2166 284.1413 -316.4923 291.7996 245.8191 -9.5466 -9.4777 216000.0000 -3.9035 -3.9207
TCL: namdcph) Proposal rejected.
TCL: Running for 1000 steps without repeating first step
TCL: namdcph) Proposal rejected.
TCL: Running for 1000 steps without repeating first step
TCL: namdcph) Proposal rejected.
TCL: Running for 1000 steps without repeating first step
TCL: namdcph) Proposal rejected.
TCL: Running for 1000 steps without repeating first step
TCL: namdcph) Proposal rejected.
TCL: Running for 1000 steps without repeating first step
ETITLE: TS BOND ANGLE DIHED IMPRP ELECT VDW BOUNDARY MISC KINETIC TOTAL TEMP POTENTIAL TOTAL3 TEMPAVG PRESSURE GPRESSURE VOLUME PRESSAVG GPRESSAVG
ENERGY: 10000 170.0428 493.6981 498.0611 28.7806 -1366.1411 -88.7121 0.0000 0.0000 656.9568 392.6863 307.6740 -264.2705 393.9337 294.6362 87.3237 86.6135 216000.0000 -4.4090 -4.4238
TCL: namdcph) Proposal rejected.
TCL: Running for 1000 steps without repeating first step
TCL: namdcph) Proposal rejected.
TCL: Running for 1000 steps without repeating first step
TCL: namdcph) Proposal rejected.
TCL: Running for 1000 steps without repeating first step
TCL: namdcph) Proposal rejected.
TCL: Running for 1000 steps without repeating first step
TCL: namdcph) Proposal rejected.
TCL: Running for 1000 steps without repeating first step
ETITLE: TS BOND ANGLE DIHED IMPRP ELECT VDW BOUNDARY MISC KINETIC TOTAL TEMP POTENTIAL TOTAL3 TEMPAVG PRESSURE GPRESSURE VOLUME PRESSAVG GPRESSAVG
ENERGY: 15000 156.8104 476.5680 488.8647 33.5509 -1363.0959 -96.3335 0.0000 0.0000 624.0686 320.4332 292.2714 -303.6354 322.3810 301.0902 -53.8668 -53.5574 216000.0000 3.4130 3.4141
TCL: namdcph) Proposal rejected.
TCL: Running for 1000 steps without repeating first step
TCL: namdcph) Proposal rejected.
TCL: Running for 1000 steps without repeating first step
TCL: namdcph) Proposal rejected.
TCL: Running for 1000 steps without repeating first step
TCL: namdcph) Proposal rejected.
TCL: Running for 1000 steps without repeating first step
TCL: namdcph) Proposal rejected.
TCL: Running for 1000 steps without repeating first step
ETITLE: TS BOND ANGLE DIHED IMPRP ELECT VDW BOUNDARY MISC KINETIC TOTAL TEMP POTENTIAL TOTAL3 TEMPAVG PRESSURE GPRESSURE VOLUME PRESSAVG GPRESSAVG
ENERGY: 20000 158.4391 503.7272 484.5863 33.1365 -1391.5678 -83.0568 0.0000 0.0000 646.3178 351.5823 302.6914 -294.7355 352.7567 296.9511 16.5876 18.7383 216000.0000 -10.9101 -10.9203
TCL: namdcph) Proposal rejected.
TCL: Running for 1000 steps without repeating first step
TCL: namdcph) Proposal rejected.
TCL: Running for 1000 steps without repeating first step
TCL: namdcph) Proposal rejected.
TCL: Running for 1000 steps without repeating first step
TCL: namdcph) Proposal rejected.
TCL: Running for 1000 steps without repeating first step
TCL: namdcph) Proposal rejected.
TCL: Running for 1000 steps without repeating first step
ETITLE: TS BOND ANGLE DIHED IMPRP ELECT VDW BOUNDARY MISC KINETIC TOTAL TEMP POTENTIAL TOTAL3 TEMPAVG PRESSURE GPRESSURE VOLUME PRESSAVG GPRESSAVG
ENERGY: 25000 157.1267 494.5883 479.2848 37.2018 -1367.9974 -109.3009 0.0000 0.0000 609.9535 300.8567 285.6608 -309.0968 302.4817 294.3624 -20.7078 -18.0192 216000.0000 -2.4043 -2.4000
TCL: namdcph) Proposal rejected.
TCL: Running for 1000 steps without repeating first step
TCL: namdcph) Proposal rejected.
TCL: Running for 1000 steps without repeating first step
TCL: namdcph) Proposal rejected.
TCL: Running for 1000 steps without repeating first step
TCL: namdcph) Proposal rejected.
TCL: Running for 1000 steps without repeating first step
TCL: namdcph) Proposal rejected.
TCL: Running for 1000 steps without repeating first step
ETITLE: TS BOND ANGLE DIHED IMPRP ELECT VDW BOUNDARY MISC KINETIC TOTAL TEMP POTENTIAL TOTAL3 TEMPAVG PRESSURE GPRESSURE VOLUME PRESSAVG GPRESSAVG
ENERGY: 30000 156.9079 496.5069 491.8691 39.3894 -1369.3663 -84.5179 0.0000 0.0000 626.2745 357.0637 293.3045 -269.2108 359.0852 286.9548 39.2644 37.0367 216000.0000 -4.2626 -4.2889
TCL: namdcph) Proposal rejected.
TCL: Running for 1000 steps without repeating first step
TCL: namdcph) Proposal rejected.
TCL: Running for 1000 steps without repeating first step
TCL: namdcph) Proposal rejected.
TCL: Running for 1000 steps without repeating first step
TCL: namdcph) Proposal rejected.
TCL: Running for 1000 steps without repeating first step
TCL: namdcph) Proposal rejected.
TCL: Running for 1000 steps without repeating first step
ETITLE: TS BOND ANGLE DIHED IMPRP ELECT VDW BOUNDARY MISC KINETIC TOTAL TEMP POTENTIAL TOTAL3 TEMPAVG PRESSURE GPRESSURE VOLUME PRESSAVG GPRESSAVG
ENERGY: 35000 140.2874 472.6747 489.4703 34.5335 -1360.8160 -106.8054 0.0000 0.0000 646.0224 315.3668 302.5530 -330.6556 317.4151 291.0620 60.3054 59.5364 216000.0000 -0.6602 -0.6726
TCL: namdcph) Proposal rejected.
TCL: Running for 1000 steps without repeating first step
TCL: namdcph) Proposal rejected.
TCL: Running for 1000 steps without repeating first step
TCL: namdcph) Proposal rejected.
TCL: Running for 1000 steps without repeating first step
TCL: namdcph) Proposal rejected.
TCL: Running for 1000 steps without repeating first step
TCL: namdcph) Proposal rejected.
TCL: Running for 1000 steps without repeating first step
ETITLE: TS BOND ANGLE DIHED IMPRP ELECT VDW BOUNDARY MISC KINETIC TOTAL TEMP POTENTIAL TOTAL3 TEMPAVG PRESSURE GPRESSURE VOLUME PRESSAVG GPRESSAVG
ENERGY: 40000 158.2050 499.9748 490.1793 34.8621 -1375.4962 -81.1124 0.0000 0.0000 626.8213 353.4339 293.5605 -273.3874 355.1297 299.1946 68.9027 68.9891 216000.0000 -3.1610 -3.1698
TCL: namdcph) Proposal rejected.
TCL: Running for 1000 steps without repeating first step
TCL: namdcph) Proposal rejected.
TCL: Running for 1000 steps without repeating first step
TCL: namdcph) Proposal rejected.
TCL: Running for 1000 steps without repeating first step
TCL: namdcph) Proposal rejected.
TCL: Running for 1000 steps without repeating first step
TCL: namdcph) Proposal rejected.
TCL: Running for 1000 steps without repeating first step
ETITLE: TS BOND ANGLE DIHED IMPRP ELECT VDW BOUNDARY MISC KINETIC TOTAL TEMP POTENTIAL TOTAL3 TEMPAVG PRESSURE GPRESSURE VOLUME PRESSAVG GPRESSAVG
ENERGY: 45000 171.9693 474.2667 487.6101 27.6788 -1357.1098 -99.8875 0.0000 0.0000 629.8367 334.3643 294.9728 -295.4724 337.0746 297.4169 -39.6739 -42.5811 216000.0000 3.6707 3.6467
TCL: namdcph) Proposal rejected.
TCL: Running for 1000 steps without repeating first step
TCL: namdcph) Proposal rejected.
TCL: Running for 1000 steps without repeating first step
TCL: namdcph) Proposal rejected.
TCL: Running for 1000 steps without repeating first step
TCL: namdcph) Proposal rejected.
TCL: Running for 1000 steps without repeating first step
TCL: namdcph) Proposal rejected.
TCL: Running for 1000 steps without repeating first step
ETITLE: TS BOND ANGLE DIHED IMPRP ELECT VDW BOUNDARY MISC KINETIC TOTAL TEMP POTENTIAL TOTAL3 TEMPAVG PRESSURE GPRESSURE VOLUME PRESSAVG GPRESSAVG
ENERGY: 50000 157.6124 492.5166 488.3215 33.0810 -1364.4983 -106.9011 0.0000 0.0000 633.0142 333.1462 296.4609 -299.8680 334.3761 296.1295 -48.2053 -46.0133 216000.0000 -5.1456 -5.1462
TCL: namdcph) Proposal rejected.
TCL: Running for 1000 steps without repeating first step
TCL: namdcph) Proposal rejected.
TCL: Running for 1000 steps without repeating first step
TCL: namdcph) Proposal rejected.
TCL: Running for 1000 steps without repeating first step
TCL: namdcph) Proposal rejected.
TCL: Running for 1000 steps without repeating first step
TCL: namdcph) Proposal rejected.
TCL: Running for 1000 steps without repeating first step
ETITLE: TS BOND ANGLE DIHED IMPRP ELECT VDW BOUNDARY MISC KINETIC TOTAL TEMP POTENTIAL TOTAL3 TEMPAVG PRESSURE GPRESSURE VOLUME PRESSAVG GPRESSAVG
ENERGY: 55000 165.4154 513.2132 494.9914 34.1489 -1351.9862 -122.8203 0.0000 0.0000 628.7094 361.6718 294.4448 -267.0377 363.5816 297.0255 -111.6423 -111.8587 216000.0000 2.3447 2.3682
TCL: namdcph) Proposal rejected.
TCL: Running for 1000 steps without repeating first step
TCL: namdcph) Proposal rejected.
TCL: Running for 1000 steps without repeating first step
TCL: namdcph) Proposal rejected.
TCL: Running for 1000 steps without repeating first step
TCL: namdcph) Proposal rejected.
TCL: Running for 1000 steps without repeating first step
TCL: namdcph) Proposal rejected.
TCL: Running for 1000 steps without repeating first step
ETITLE: TS BOND ANGLE DIHED IMPRP ELECT VDW BOUNDARY MISC KINETIC TOTAL TEMP POTENTIAL TOTAL3 TEMPAVG PRESSURE GPRESSURE VOLUME PRESSAVG GPRESSAVG
ENERGY: 60000 166.2697 486.6604 485.7233 24.3363 -1379.2827 -88.3722 0.0000 0.0000 621.3190 316.6537 290.9836 -304.6652 317.9716 290.9743 -42.1670 -42.2832 216000.0000 -0.2188 -0.2308
TCL: namdcph) Proposal rejected.
TCL: Running for 1000 steps without repeating first step
TCL: namdcph) Proposal rejected.
TCL: Running for 1000 steps without repeating first step
TCL: namdcph) Proposal rejected.
TCL: Running for 1000 steps without repeating first step
TCL: namdcph) Proposal rejected.
TCL: Running for 1000 steps without repeating first step
TCL: namdcph) Proposal rejected.
TCL: Running for 1000 steps without repeating first step
ETITLE: TS BOND ANGLE DIHED IMPRP ELECT VDW BOUNDARY MISC KINETIC TOTAL TEMP POTENTIAL TOTAL3 TEMPAVG PRESSURE GPRESSURE VOLUME PRESSAVG GPRESSAVG
ENERGY: 65000 178.8459 510.2581 492.0962 26.4814 -1365.5982 -117.2416 0.0000 0.0000 621.1320 345.9738 290.8961 -275.1582 346.6620 297.5056 -62.6331 -65.6805 216000.0000 -0.6138 -0.6168
TCL: namdcph) Proposal rejected.
TCL: Running for 1000 steps without repeating first step
TCL: namdcph) Proposal rejected.
TCL: Running for 1000 steps without repeating first step
TCL: namdcph) Proposal rejected.
TCL: Running for 1000 steps without repeating first step
TCL: namdcph) Proposal rejected.
TCL: Running for 1000 steps without repeating first step
TCL: namdcph) Proposal rejected.
TCL: Running for 1000 steps without repeating first step
ETITLE: TS BOND ANGLE DIHED IMPRP ELECT VDW BOUNDARY MISC KINETIC TOTAL TEMP POTENTIAL TOTAL3 TEMPAVG PRESSURE GPRESSURE VOLUME PRESSAVG GPRESSAVG
ENERGY: 70000 168.0714 487.1217 498.9242 38.9074 -1393.5239 -77.7111 0.0000 0.0000 675.5398 397.3294 316.3770 -278.2104 399.6056 302.3408 14.1574 11.8486 216000.0000 -1.8284 -1.8401
TCL: namdcph) Proposal rejected.
TCL: Running for 1000 steps without repeating first step
TCL: namdcph) Proposal rejected.
TCL: Running for 1000 steps without repeating first step
TCL: namdcph) Proposal rejected.
TCL: Running for 1000 steps without repeating first step
TCL: namdcph) Proposal rejected.
TCL: Running for 1000 steps without repeating first step
TCL: namdcph) Proposal rejected.
TCL: Running for 1000 steps without repeating first step
ETITLE: TS BOND ANGLE DIHED IMPRP ELECT VDW BOUNDARY MISC KINETIC TOTAL TEMP POTENTIAL TOTAL3 TEMPAVG PRESSURE GPRESSURE VOLUME PRESSAVG GPRESSAVG
ENERGY: 75000 146.7717 497.9525 500.2928 28.4469 -1361.2223 -99.2272 0.0000 0.0000 648.5675 361.5821 303.7450 -286.9854 363.6101 295.2977 30.1727 30.3205 216000.0000 -1.5365 -1.5452
TCL: namdcph) Proposal rejected.
TCL: Running for 1000 steps without repeating first step
TCL: namdcph) Proposal rejected.
TCL: Running for 1000 steps without repeating first step
TCL: namdcph) Proposal rejected.
TCL: Running for 1000 steps without repeating first step
TCL: namdcph) Proposal rejected.
TCL: Running for 1000 steps without repeating first step
TCL: namdcph) Proposal rejected.
TCL: Running for 1000 steps without repeating first step
ETITLE: TS BOND ANGLE DIHED IMPRP ELECT VDW BOUNDARY MISC KINETIC TOTAL TEMP POTENTIAL TOTAL3 TEMPAVG PRESSURE GPRESSURE VOLUME PRESSAVG GPRESSAVG
ENERGY: 80000 151.7259 491.0892 499.6879 38.4599 -1355.9118 -89.6680 0.0000 0.0000 633.7713 369.1545 296.8155 -264.6168 371.0184 296.7950 96.3873 95.3334 216000.0000 -3.7766 -3.7702
TCL: namdcph) Proposal rejected.
TCL: Running for 1000 steps without repeating first step
TCL: namdcph) Proposal rejected.
TCL: Running for 1000 steps without repeating first step
TCL: namdcph) Proposal rejected.
TCL: Running for 1000 steps without repeating first step
TCL: namdcph) Proposal rejected.
TCL: Running for 1000 steps without repeating first step
TCL: namdcph) Proposal rejected.
TCL: Running for 1000 steps without repeating first step
ETITLE: TS BOND ANGLE DIHED IMPRP ELECT VDW BOUNDARY MISC KINETIC TOTAL TEMP POTENTIAL TOTAL3 TEMPAVG PRESSURE GPRESSURE VOLUME PRESSAVG GPRESSAVG
ENERGY: 85000 158.2827 475.9897 488.1830 38.3177 -1342.8806 -121.4941 0.0000 0.0000 633.9308 330.3291 296.8902 -303.6016 332.4904 297.6532 -31.2496 -34.9143 216000.0000 5.6777 5.6647
TCL: namdcph) Proposal rejected.
TCL: Running for 1000 steps without repeating first step
TCL: namdcph) Proposal rejected.
TCL: Running for 1000 steps without repeating first step
TCL: namdcph) Proposal rejected.
TCL: Running for 1000 steps without repeating first step
TCL: namdcph) Proposal rejected.
TCL: Running for 1000 steps without repeating first step
TCL: namdcph) Proposal rejected.
TCL: Running for 1000 steps without repeating first step
ETITLE: TS BOND ANGLE DIHED IMPRP ELECT VDW BOUNDARY MISC KINETIC TOTAL TEMP POTENTIAL TOTAL3 TEMPAVG PRESSURE GPRESSURE VOLUME PRESSAVG GPRESSAVG
ENERGY: 90000 159.0287 500.6488 493.6094 36.7882 -1377.8692 -89.2287 0.0000 0.0000 621.7720 344.7492 291.1958 -277.0228 346.2081 293.6220 -78.2577 -74.6030 216000.0000 -2.2687 -2.2832
TCL: namdcph) Proposal rejected.
TCL: Running for 1000 steps without repeating first step
TCL: namdcph) Proposal rejected.
TCL: Running for 1000 steps without repeating first step
TCL: namdcph) Proposal rejected.
TCL: Running for 1000 steps without repeating first step
TCL: namdcph) Proposal rejected.
TCL: Running for 1000 steps without repeating first step
TCL: namdcph) Proposal rejected.
TCL: Running for 1000 steps without repeating first step
ETITLE: TS BOND ANGLE DIHED IMPRP ELECT VDW BOUNDARY MISC KINETIC TOTAL TEMP POTENTIAL TOTAL3 TEMPAVG PRESSURE GPRESSURE VOLUME PRESSAVG GPRESSAVG
ENERGY: 95000 164.7271 500.2236 491.0836 36.3783 -1352.8372 -105.0790 0.0000 0.0000 567.1958 301.6923 265.6360 -265.5035 303.4251 294.0087 -5.7052 -8.7482 216000.0000 4.3578 4.3806
TCL: namdcph) Proposal rejected.
TCL: Running for 1000 steps without repeating first step
TCL: namdcph) Proposal rejected.
TCL: Running for 1000 steps without repeating first step
TCL: namdcph) Proposal rejected.
TCL: Running for 1000 steps without repeating first step
TCL: namdcph) Proposal rejected.
TCL: Running for 1000 steps without repeating first step
TCL: namdcph) Proposal rejected.
TCL: Running for 1000 steps without repeating first step
ETITLE: TS BOND ANGLE DIHED IMPRP ELECT VDW BOUNDARY MISC KINETIC TOTAL TEMP POTENTIAL TOTAL3 TEMPAVG PRESSURE GPRESSURE VOLUME PRESSAVG GPRESSAVG
ENERGY: 100000 146.9039 485.0774 504.6213 33.6894 -1387.9559 -70.6761 0.0000 0.0000 642.2180 353.8780 300.7713 -288.3400 355.8118 298.5662 63.5610 63.7222 216000.0000 3.3085 3.3119
TCL: namdcph) Proposal rejected.
TCL: Running for 1000 steps without repeating first step
TCL: namdcph) Proposal rejected.
TCL: Running for 1000 steps without repeating first step
TCL: namdcph) Proposal rejected.
TCL: Running for 1000 steps without repeating first step
TCL: namdcph) Proposal rejected.
TCL: Running for 1000 steps without repeating first step
TCL: namdcph) Proposal rejected.
TCL: Running for 1000 steps without repeating first step
ETITLE: TS BOND ANGLE DIHED IMPRP ELECT VDW BOUNDARY MISC KINETIC TOTAL TEMP POTENTIAL TOTAL3 TEMPAVG PRESSURE GPRESSURE VOLUME PRESSAVG GPRESSAVG
ENERGY: 105000 147.4937 480.4000 495.9106 40.0498 -1368.4986 -104.2778 0.0000 0.0000 616.2998 307.3774 288.6330 -308.9224 309.5697 294.3168 78.7638 78.9246 216000.0000 4.4376 4.4308
TCL: namdcph) Proposal rejected.
TCL: Running for 1000 steps without repeating first step
TCL: namdcph) Proposal rejected.
TCL: Running for 1000 steps without repeating first step
TCL: namdcph) Proposal rejected.
TCL: Running for 1000 steps without repeating first step
TCL: namdcph) Proposal rejected.
TCL: Running for 1000 steps without repeating first step
TCL: namdcph) Proposal rejected.
TCL: Running for 1000 steps without repeating first step
ETITLE: TS BOND ANGLE DIHED IMPRP ELECT VDW BOUNDARY MISC KINETIC TOTAL TEMP POTENTIAL TOTAL3 TEMPAVG PRESSURE GPRESSURE VOLUME PRESSAVG GPRESSAVG
ENERGY: 110000 162.0624 461.8724 495.3060 44.9129 -1381.4259 -87.4299 0.0000 0.0000 648.5934 343.8913 303.7571 -304.7021 344.3892 289.7166 -72.5339 -73.1239 216000.0000 1.9239 1.9244
TCL: namdcph) Proposal rejected.
TCL: Running for 1000 steps without repeating first step
TCL: namdcph) Proposal rejected.
TCL: Running for 1000 steps without repeating first step
TCL: namdcph) Proposal rejected.
TCL: Running for 1000 steps without repeating first step
TCL: namdcph) Proposal rejected.
TCL: Running for 1000 steps without repeating first step
TCL: namdcph) Proposal rejected.
TCL: Running for 1000 steps without repeating first step
ETITLE: TS BOND ANGLE DIHED IMPRP ELECT VDW BOUNDARY MISC KINETIC TOTAL TEMP POTENTIAL TOTAL3 TEMPAVG PRESSURE GPRESSURE VOLUME PRESSAVG GPRESSAVG
ENERGY: 115000 150.5503 532.9849 483.0013 35.8630 -1377.1624 -97.5029 0.0000 0.0000 660.7665 388.5008 309.4582 -272.2658 390.6118 304.3351 14.0379 16.2064 216000.0000 0.6135 0.6056
TCL: namdcph) Proposal rejected.
TCL: Running for 1000 steps without repeating first step
TCL: namdcph) Proposal rejected.
TCL: Running for 1000 steps without repeating first step
TCL: namdcph) Proposal rejected.
TCL: Running for 1000 steps without repeating first step
TCL: namdcph) Proposal rejected.
TCL: Running for 1000 steps without repeating first step
TCL: namdcph) Proposal rejected.
TCL: Running for 1000 steps without repeating first step
ETITLE: TS BOND ANGLE DIHED IMPRP ELECT VDW BOUNDARY MISC KINETIC TOTAL TEMP POTENTIAL TOTAL3 TEMPAVG PRESSURE GPRESSURE VOLUME PRESSAVG GPRESSAVG
ENERGY: 120000 171.9012 488.5127 497.5902 38.5022 -1369.8383 -111.5442 0.0000 0.0000 645.0818 360.2055 302.1125 -284.8763 362.3946 305.0380 -14.4090 -13.4151 216000.0000 -2.0651 -2.0864
TCL: namdcph) Proposal rejected.
TCL: Running for 1000 steps without repeating first step
TCL: namdcph) Proposal rejected.
TCL: Running for 1000 steps without repeating first step
TCL: namdcph) Proposal rejected.
TCL: Running for 1000 steps without repeating first step
TCL: namdcph) Proposal rejected.
TCL: Running for 1000 steps without repeating first step
TCL: namdcph) Proposal rejected.
TCL: Running for 1000 steps without repeating first step
ETITLE: TS BOND ANGLE DIHED IMPRP ELECT VDW BOUNDARY MISC KINETIC TOTAL TEMP POTENTIAL TOTAL3 TEMPAVG PRESSURE GPRESSURE VOLUME PRESSAVG GPRESSAVG
ENERGY: 125000 173.6842 492.5637 487.7081 41.1940 -1390.8584 -88.1002 0.0000 0.0000 652.9551 369.1464 305.7998 -283.8087 370.2867 302.2074 -44.9959 -41.0731 216000.0000 -0.2105 -0.2094
TCL: namdcph) Proposal rejected.
TCL: Running for 1000 steps without repeating first step
TCL: namdcph) Proposal rejected.
TCL: Running for 1000 steps without repeating first step
TCL: namdcph) Proposal rejected.
TCL: Running for 1000 steps without repeating first step
TCL: namdcph) Proposal rejected.
TCL: Running for 1000 steps without repeating first step
TCL: namdcph) Proposal rejected.
TCL: Running for 1000 steps without repeating first step
ETITLE: TS BOND ANGLE DIHED IMPRP ELECT VDW BOUNDARY MISC KINETIC TOTAL TEMP POTENTIAL TOTAL3 TEMPAVG PRESSURE GPRESSURE VOLUME PRESSAVG GPRESSAVG
ENERGY: 130000 146.9336 455.0025 470.4292 30.8660 -1351.4748 -84.9416 0.0000 0.0000 657.2984 324.1133 307.8340 -333.1851 325.6848 292.0528 39.2720 37.4009 216000.0000 -1.3888 -1.3755
TCL: namdcph) Proposal rejected.
TCL: Running for 1000 steps without repeating first step
TCL: namdcph) Proposal rejected.
TCL: Running for 1000 steps without repeating first step
TCL: namdcph) Proposal rejected.
TCL: Running for 1000 steps without repeating first step
TCL: namdcph) Proposal rejected.
TCL: Running for 1000 steps without repeating first step
TCL: namdcph) Proposal rejected.
TCL: Running for 1000 steps without repeating first step
ETITLE: TS BOND ANGLE DIHED IMPRP ELECT VDW BOUNDARY MISC KINETIC TOTAL TEMP POTENTIAL TOTAL3 TEMPAVG PRESSURE GPRESSURE VOLUME PRESSAVG GPRESSAVG
ENERGY: 135000 183.3249 479.8172 490.1921 35.9040 -1357.8676 -122.4042 0.0000 0.0000 639.7424 348.7089 299.6120 -291.0336 350.4159 293.1064 -190.2892 -189.0482 216000.0000 8.6948 8.7081
TCL: namdcph) Proposal rejected.
TCL: Running for 1000 steps without repeating first step
TCL: namdcph) Proposal rejected.
TCL: Running for 1000 steps without repeating first step
TCL: namdcph) Proposal rejected.
TCL: Running for 1000 steps without repeating first step
TCL: namdcph) Proposal rejected.
TCL: Running for 1000 steps without repeating first step
TCL: namdcph) Proposal rejected.
TCL: Running for 1000 steps without repeating first step
ETITLE: TS BOND ANGLE DIHED IMPRP ELECT VDW BOUNDARY MISC KINETIC TOTAL TEMP POTENTIAL TOTAL3 TEMPAVG PRESSURE GPRESSURE VOLUME PRESSAVG GPRESSAVG
ENERGY: 140000 147.8520 475.8962 493.0631 38.5521 -1346.5504 -111.1665 0.0000 0.0000 592.6769 290.3235 277.5696 -302.3535 292.2031 289.0872 82.9947 86.0931 216000.0000 -8.8582 -8.8636
TCL: namdcph) Proposal rejected.
TCL: Running for 1000 steps without repeating first step
TCL: namdcph) Proposal rejected.
TCL: Running for 1000 steps without repeating first step
TCL: namdcph) Proposal rejected.
TCL: Running for 1000 steps without repeating first step
TCL: namdcph) Proposal rejected.
TCL: Running for 1000 steps without repeating first step
TCL: namdcph) Proposal accepted, attemping a switch.
TCL: Setting parameter outputEnergies to 75000
TCL: Setting parameter dcdFreq to 0
TCL: Setting parameter firstTimestep to 0
TCL: Setting parameter alch to on
Info: NONBONDED TABLE R-SQUARED SPACING: 0.0625
Info: NONBONDED TABLE SIZE: 769 POINTS
TCL: Writing to files with basename 7/namdcph.md.
TCL: cphpsfgen) creating new alchemical side chain for PP1:918:GLU
TCL: Reloading molecular structure from file 7/namdcph.sw.psf and pdb file 7/namdcph.sw.pdb
Info: READING EXTRA BONDS FILE 7/namdcph.sw.extrabonds
Info: READ 8 EXTRA BONDS
Info: To read alchdata from file: coordinate pdb file (default)
Info: To read alchflag data from column: 5
Info: LONG-RANGE LJ: APPLYING ANALYTICAL CORRECTIONS TO ENERGY AND PRESSURE
Info: LONG-RANGE LJ: AVERAGE A0 AND B0 COEFFICIENTS 257940 AND 189.542
Info: LONG-RANGE LJ: AVERAGE A1 AND B1 COEFFICIENTS 257610 AND 189.282
Info: STRUCTURE SUMMARY:
Info: 871 ATOMS
Info: 880 BONDS
Info: 1573 ANGLES
Info: 2284 DIHEDRALS
Info: 178 IMPROPERS
Info: 54 CROSSTERMS
Info: 0 EXCLUSIONS
Info: 444 RIGID BONDS
Info: ALCH: 8 ATOMS TO DISAPPEAR IN FINAL STATE
Info: ALCH: 8 ATOMS TO APPEAR IN FINAL STATE
Info: ALCH: 6 DIHEDRALS LINKING INITIAL AND FINAL ATOMS DELETED
Info: 2169 DEGREES OF FREEDOM
Info: 427 HYDROGEN GROUPS
Info: 4 ATOMS IN LARGEST HYDROGEN GROUP
Info: 427 MIGRATION GROUPS
Info: 4 ATOMS IN LARGEST MIGRATION GROUP
Info: TOTAL MASS = 6082.88 amu
Info: TOTAL CHARGE = 2 e
Info: MASS DENSITY = 0.0467643 g/cm^3
Info: ATOM DENSITY = 0.00403241 atoms/A^3
Info: ADDED 4723 IMPLICIT EXCLUSIONS
Info: NONBONDED TABLE R-SQUARED SPACING: 0.0625
Info: NONBONDED TABLE SIZE: 769 POINTS
TCL: Reinitializing atom data from files with basename 7/namdcph.sw
Info: REMOVING COM VELOCITY -0.0143335 0.305752 0.0522476
TCL: Running for 75000 steps
ETITLE: TS BOND ANGLE DIHED IMPRP ELECT VDW BOUNDARY MISC KINETIC TOTAL TEMP POTENTIAL TOTAL3 TEMPAVG PRESSURE GPRESSURE VOLUME PRESSAVG GPRESSAVG
ENERGY: 0 162.7468 495.0851 498.8602 29.1682 -1371.7819 -102.6380 0.0000 0.0000 652.1829 363.6234 302.6218 -288.5596 365.5633 291.1002 -66.0751 -65.5636 216000.0000 5.7762 5.7669
ENERGY: 75000 178.0205 490.4356 487.6121 30.1020 -1278.8083 -91.9064 0.0000 0.0000 683.9594 499.4149 317.3665 -184.5444 501.8270 298.3896 -11.7732 -8.9352 216000.0000 -2.4234 -2.4252
TCL: Setting parameter outputEnergies to 5000
TCL: Setting parameter dcdFreq to 5000
TCL: namdcph) PP1:918:GLU:D:1 WorkCorr   -64.3182 CorrWork    29.7139
TCL: Setting parameter outputEnergies to 5000
TCL: Setting parameter dcdFreq to 5000
TCL: Setting parameter firstTimestep to 144000
TCL: namdcph) Switch rejected!
TCL: Setting parameter alch to off
Info: NONBONDED TABLE R-SQUARED SPACING: 0.0625
Info: NONBONDED TABLE SIZE: 769 POINTS
TCL: namdcph) clearing extraBondsFile 7/namdcph.sw.extrabonds
TCL: Reloading molecular structure from file 7/namdcph.md.psf and pdb file 7/namdcph.md.pdb
Info: READING EXTRA BONDS FILE 7/namdcph.sw.extrabonds
Info: LONG-RANGE LJ: APPLYING ANALYTICAL CORRECTIONS TO ENERGY AND PRESSURE
Info: LONG-RANGE LJ: AVERAGE A AND B COEFFICIENTS 257940 AND 189.542
Info: STRUCTURE SUMMARY:
Info: 863 ATOMS
Info: 864 BONDS
Info: 1559 ANGLES
Info: 2262 DIHEDRALS
Info: 177 IMPROPERS
Info: 54 CROSSTERMS
Info: 0 EXCLUSIONS
Info: 440 RIGID BONDS
Info: 2149 DEGREES OF FREEDOM
Info: 423 HYDROGEN GROUPS
Info: 4 ATOMS IN LARGEST HYDROGEN GROUP
Info: 423 MIGRATION GROUPS
Info: 4 ATOMS IN LARGEST MIGRATION GROUP
Info: TOTAL MASS = 6022.82 amu
Info: TOTAL CHARGE = 2 e
Info: MASS DENSITY = 0.0463026 g/cm^3
Info: ATOM DENSITY = 0.00399537 atoms/A^3
Info: ADDED 4679 IMPLICIT EXCLUSIONS
Info: NONBONDED TABLE R-SQUARED SPACING: 0.0625
Info: NONBONDED TABLE SIZE: 769 POINTS
TCL: Reinitializing atom data from files with basename 7/namdcph.md
Info: REMOVING COM VELOCITY -0.000609725 0.278885 0.0559415
TCL: Running for 1000 steps
ETITLE: TS BOND ANGLE DIHED IMPRP ELECT VDW BOUNDARY MISC KINETIC TOTAL TEMP POTENTIAL TOTAL3 TEMPAVG PRESSURE GPRESSURE VOLUME PRESSAVG GPRESSAVG
ENERGY: 145000 168.5279 503.6928 488.1751 27.3024 -1359.8013 -95.0940 0.0000 0.0000 628.9836 361.7866 294.5732 -267.1970 363.3839 300.1106 95.3764 95.1925 216000.0000 6.4233 6.4233
TCL: namdcph) Proposal rejected.
TCL: Running for 1000 steps without repeating first step
TCL: namdcph) Proposal rejected.
TCL: Running for 1000 steps without repeating first step
TCL: namdcph) Proposal rejected.
TCL: Running for 1000 steps without repeating first step
TCL: namdcph) Proposal rejected.
TCL: Running for 1000 steps without repeating first step
TCL: namdcph) Proposal rejected.
TCL: Running for 1000 steps without repeating first step
ETITLE: TS BOND ANGLE DIHED IMPRP ELECT VDW BOUNDARY MISC KINETIC TOTAL TEMP POTENTIAL TOTAL3 TEMPAVG PRESSURE GPRESSURE VOLUME PRESSAVG GPRESSAVG
ENERGY: 150000 158.2281 472.9346 501.7416 35.9029 -1372.4116 -90.4038 0.0000 0.0000 635.3871 341.3790 297.5722 -294.0081 343.3725 296.3070 42.5943 46.1452 216000.0000 3.2654 3.2555
TCL: namdcph) Proposal rejected.
TCL: Running for 1000 steps without repeating first step
TCL: namdcph) Proposal rejected.
TCL: Running for 1000 steps without repeating first step
TCL: namdcph) Proposal rejected.
TCL: Running for 1000 steps without repeating first step
TCL: namdcph) Proposal rejected.
TCL: Running for 1000 steps without repeating first step
TCL: namdcph) Proposal rejected.
TCL: Running for 1000 steps without repeating first step
ETITLE: TS BOND ANGLE DIHED IMPRP ELECT VDW BOUNDARY MISC KINETIC TOTAL TEMP POTENTIAL TOTAL3 TEMPAVG PRESSURE GPRESSURE VOLUME PRESSAVG GPRESSAVG
ENERGY: 155000 151.3137 511.4593 502.1827 29.6503 -1372.3941 -102.7962 0.0000 0.0000 601.0112 320.4270 281.4729 -280.5842 321.7402 299.3219 -13.7376 -14.3471 216000.0000 -2.6177 -2.6174
TCL: namdcph) Proposal rejected.
TCL: Running for 1000 steps without repeating first step
TCL: namdcph) Proposal rejected.
TCL: Running for 1000 steps without repeating first step
TCL: namdcph) Proposal rejected.
TCL: Running for 1000 steps without repeating first step
TCL: namdcph) Proposal rejected.
TCL: Running for 1000 steps without repeating first step
TCL: namdcph) Proposal rejected.
TCL: Running for 1000 steps without repeating first step
ETITLE: TS BOND ANGLE DIHED IMPRP ELECT VDW BOUNDARY MISC KINETIC TOTAL TEMP POTENTIAL TOTAL3 TEMPAVG PRESSURE GPRESSURE VOLUME PRESSAVG GPRESSAVG
ENERGY: 160000 165.0895 498.6816 505.8796 30.1857 -1368.6008 -88.2293 0.0000 0.0000 657.8591 400.8654 308.0966 -256.9937 403.2075 298.1269 -86.8084 -83.0466 216000.0000 9.5163 9.5420
TCL: namdcph) Proposal rejected.
TCL: Running for 1000 steps without repeating first step
TCL: namdcph) Proposal rejected.
TCL: Running for 1000 steps without repeating first step
TCL: namdcph) Proposal rejected.
TCL: Running for 1000 steps without repeating first step
TCL: namdcph) Proposal rejected.
TCL: Running for 1000 steps without repeating first step
TCL: namdcph) Proposal rejected.
TCL: Running for 1000 steps without repeating first step
ETITLE: TS BOND ANGLE DIHED IMPRP ELECT VDW BOUNDARY MISC KINETIC TOTAL TEMP POTENTIAL TOTAL3 TEMPAVG PRESSURE GPRESSURE VOLUME PRESSAVG GPRESSAVG
ENERGY: 165000 162.6450 503.5882 494.8200 33.7163 -1357.1327 -106.5080 0.0000 0.0000 632.2662 363.3950 296.1106 -268.8712 364.8164 301.0954 -91.7786 -92.4687 216000.0000 4.2753 4.2620
TCL: namdcph) Proposal rejected.
TCL: Running for 1000 steps without repeating first step
TCL: namdcph) Proposal rejected.
TCL: Running for 1000 steps without repeating first step
TCL: namdcph) Proposal rejected.
TCL: Running for 1000 steps without repeating first step
TCL: namdcph) Proposal rejected.
TCL: Running for 1000 steps without repeating first step
TCL: namdcph) Proposal rejected.
TCL: Running for 1000 steps without repeating first step
ETITLE: TS BOND ANGLE DIHED IMPRP ELECT VDW BOUNDARY MISC KINETIC TOTAL TEMP POTENTIAL TOTAL3 TEMPAVG PRESSURE GPRESSURE VOLUME PRESSAVG GPRESSAVG
ENERGY: 170000 170.6028 510.7888 501.4775 43.5567 -1366.8180 -111.2952 0.0000 0.0000 652.4479 400.7605 305.5623 -251.6874 402.4839 301.7703 -89.0884 -87.2064 216000.0000 -0.6953 -0.7103
TCL: namdcph) Proposal rejected.
TCL: Running for 1000 steps without repeating first step
TCL: namdcph) Proposal rejected.
TCL: Running for 1000 steps without repeating first step
TCL: namdcph) Proposal rejected.
TCL: Running for 1000 steps without repeating first step
TCL: namdcph) Proposal rejected.
TCL: Running for 1000 steps without repeating first step
TCL: namdcph) Proposal rejected.
TCL: Running for 1000 steps without repeating first step
ETITLE: TS BOND ANGLE DIHED IMPRP ELECT VDW BOUNDARY MISC KINETIC TOTAL TEMP POTENTIAL TOTAL3 TEMPAVG PRESSURE GPRESSURE VOLUME PRESSAVG GPRESSAVG
ENERGY: 175000 178.2814 503.1673 496.1123 28.4085 -1372.8191 -88.4753 0.0000 0.0000 634.7431 379.4181 297.2706 -255.3250 381.4171 304.9451 -21.8113 -19.4679 216000.0000 -3.5673 -3.5702
TCL: namdcph) Proposal rejected.
TCL: Running for 1000 steps without repeating first step
TCL: namdcph) Proposal rejected.
TCL: Running for 1000 steps without repeating first step
TCL: namdcph) Proposal rejected.
TCL: Running for 1000 steps without repeating first step
TCL: namdcph) Proposal rejected.
TCL: Running for 1000 steps without repeating first step
TCL: namdcph) Proposal rejected.
TCL: Running for 1000 steps without repeating first step
ETITLE: TS BOND ANGLE DIHED IMPRP ELECT VDW BOUNDARY MISC KINETIC TOTAL TEMP POTENTIAL TOTAL3 TEMPAVG PRESSURE GPRESSURE VOLUME PRESSAVG GPRESSAVG
ENERGY: 180000 179.5200 517.4903 489.5596 35.1592 -1388.8686 -85.5029 0.0000 0.0000 604.4937 351.8513 283.1038 -252.6424 353.1335 305.5921 -9.0483 -6.7489 216000.0000 -8.2915 -8.2915
TCL: namdcph) Proposal rejected.
TCL: Running for 1000 steps without repeating first step
TCL: namdcph) Proposal rejected.
TCL: Running for 1000 steps without repeating first step
TCL: namdcph) Proposal rejected.
TCL: Running for 1000 steps without repeating first step
TCL: namdcph) Proposal rejected.
TCL: Running for 1000 steps without repeating first step
TCL: namdcph) Proposal rejected.
TCL: Running for 1000 steps without repeating first step
ETITLE: TS BOND ANGLE DIHED IMPRP ELECT VDW BOUNDARY MISC KINETIC TOTAL TEMP POTENTIAL TOTAL3 TEMPAVG PRESSURE GPRESSURE VOLUME PRESSAVG GPRESSAVG
ENERGY: 185000 169.1026 487.2493 488.8010 39.4919 -1348.7236 -109.1495 0.0000 0.0000 638.1875 364.9592 298.8837 -273.2283 366.5919 300.1479 -84.6301 -84.5141 216000.0000 -0.9978 -0.9940
TCL: namdcph) Proposal rejected.
TCL: Running for 1000 steps without repeating first step
TCL: namdcph) Proposal rejected.
TCL: Running for 1000 steps without repeating first step
TCL: namdcph) Proposal rejected.
TCL: Running for 1000 steps without repeating first step
TCL: namdcph) Proposal rejected.
TCL: Running for 1000 steps without repeating first step
TCL: namdcph) Proposal rejected.
TCL: Running for 1000 steps without repeating first step
