Info: SIMULATION PARAMETERS:
Info: TIMESTEP               2
Info: NUMBER OF STEPS        0
Info: STEPS PER CYCLE        20
Info: PERIODIC CELL BASIS 1  60 0 0
Info: PERIODIC CELL BASIS 2  0 60 0
Info: PERIODIC CELL BASIS 3  0 0 60
Info: PERIODIC CELL CENTER   0 0 0
Info: WRAPPING WATERS AROUND PERIODIC BOUNDARIES ON OUTPUT.
Info: WRAPPING ALL CLUSTERS AROUND PERIODIC BOUNDARIES ON OUTPUT.
Info: FIRST LDB TIMESTEP     100
Info: LAST LDB TIMESTEP     -1
Info: HOM BACKGROUND SCALING 1
Info: PME BACKGROUND SCALING 1
Info: MIN ATOMS PER PATCH    40
Info: VELOCITY FILE          14/Pre14_0.vel
Info: CENTER OF MASS MOVING INITIALLY? NO
Info: DIELECTRIC             1
Info: EXCLUDE                SCALED ONE-FOUR
Info: 1-4 ELECTROSTATICS SCALED BY 1
Info: MODIFIED 1-4 VDW PARAMETERS WILL BE USED
Info: DCD FILENAME           14/Pre14_1.dcd
Info: DCD FREQUENCY          5000
Info: DCD FIRST STEP         5000
Info: DCD FILE WILL CONTAIN UNIT CELL DATA
Info: NO EXTENDED SYSTEM TRAJECTORY OUTPUT
Info: NO VELOCITY DCD OUTPUT
Info: NO FORCE DCD OUTPUT
Info: OUTPUT FILENAME        14/Pre14_1
Info: BINARY OUTPUT FILES WILL BE USED
Info: NO RESTART FILE
Info: SWITCHING ACTIVE
Info: VDW FORCE SWITCHING ACTIVE
Info: SWITCHING ON           10
Info: SWITCHING OFF          12
Info: PAIRLIST DISTANCE      14
Info: PAIRLIST SHRINK RATE   0.01
Info: PAIRLIST GROW RATE     0.01
Info: PAIRLIST TRIGGER       0.3
Info: PAIRLISTS PER CYCLE    2
Info: PAIRLISTS ENABLED
Info: MARGIN                 2
Info: HYDROGEN GROUP CUTOFF  2.5
Info: PATCH DIMENSION        18.5
Info: ENERGY OUTPUT STEPS    5000
Info: CROSSTERM ENERGY INCLUDED IN DIHEDRAL
Info: TIMING OUTPUT STEPS    50000
Info: THERMODYNAMIC INTEGRATION (TI) ON
Info: TI LAMBDA VALUE     0
Info: TI INTRA-ALCHEMICAL NON-BONDED INTERACTIONS WILL BE DECOUPLED
Info: TI INTRA-ALCHEMICAL BONDED INTERACTIONS WILL BE DECOUPLED
Info: TI VDW SHIFTING COEFFICIENT 0
Info: TI ELEC. ACTIVE FOR ANNIHILATED PARTICLES BETWEEN LAMBDA = 0 AND LAMBDA = 1
Info: TI ELEC. ACTIVE FOR EXNIHILATED PARTICLES BETWEEN LAMBDA = 0 AND LAMBDA = 1
Info: TI VDW ACTIVE FOR ANNIHILATED PARTICLES BETWEEN LAMBDA = 0 AND LAMBDA = 1
Info: TI VDW ACTIVE FOR EXNIHILATED PARTICLES BETWEEN LAMBDA = 0 AND LAMBDA = 1
Info: TI BOND ACTIVE FOR ANNIHILATED PARTICLES BETWEEN LAMBDA = 0 AND LAMBDA = 1
Info: TI BOND ACTIVE FOR EXNIHILATED PARTICLES BETWEEN LAMBDA = 0 AND LAMBDA = 1
Info: LANGEVIN DYNAMICS ACTIVE
Info: LANGEVIN TEMPERATURE   298
Info: LANGEVIN USING BBK INTEGRATOR
Info: LANGEVIN DAMPING COEFFICIENT IS 1 INVERSE PS
Info: LANGEVIN DYNAMICS NOT APPLIED TO HYDROGENS
Info: PARTICLE MESH EWALD (PME) ACTIVE
Info: PME TOLERANCE               1e-06
Info: PME EWALD COEFFICIENT       0.257952
Info: PME INTERPOLATION ORDER     4
Info: PME GRID DIMENSIONS         60 60 60
Info: PME MAXIMUM GRID SPACING    1
Info: FULL ELECTROSTATIC EVALUATION FREQUENCY      2
Info: USING VERLET I (r-RESPA) MTS SCHEME.
Info: C1 SPLITTING OF LONG RANGE ELECTROSTATICS
Info: PLACING ATOMS IN PATCHES BY HYDROGEN GROUPS
Info: RIGID BONDS TO HYDROGEN : ALL
Info:         ERROR TOLERANCE : 1e-08
Info:          MAX ITERATIONS : 100
Info: RIGID WATER USING SETTLE ALGORITHM
Info: RANDOM NUMBER SEED     1685307345
Info: USE HYDROGEN BONDS?    NO
Info: COORDINATE PDB         14/Pre14_0.pdb
Info: STRUCTURE FILE         14/Pre14_0.psf
Info: PARAMETER file: CHARMM format!
Info: PARAMETERS             ../../toppar/par_all36_carb.prm
Info: PARAMETERS             ../../toppar/par_all36_cgenff.prm
Info: PARAMETERS             ../../toppar/par_all36_lipid.prm
Info: PARAMETERS             ../../toppar/par_all36_na.prm
Info: PARAMETERS             ../../toppar/par_all36_prot.prm
Info: PARAMETERS             ../../toppar/par_all36_solvent.prm
Info: PARAMETERS             ../../toppar/par_cph36_prot.prm
Info: PARAMETERS             ../../toppar/toppar_all36_carb_glycopeptide.str
Info: PARAMETERS             ../../toppar/toppar_water_ions_namd.str
Info: USING ARITHMETIC MEAN TO COMBINE L-J SIGMA PARAMETERS
Info: BINARY COORDINATES     14/Pre14_0.coor
Info: SKIPPING rtf SECTION IN STREAM FILE
Info: SKIPPING rtf SECTION IN STREAM FILE
Info: SUMMARY OF PARAMETERS:
Info: 925 BONDS
Info: 2696 ANGLES
Info: 6608 DIHEDRAL
Info: 195 IMPROPER
Info: 6 CROSSTERM
Info: 366 VDW
Info: 6 VDW_PAIRS
Info: 0 NBTHOLE_PAIRS
Info: READING EXTRA BONDS FILE 14/namdcph.sw.extrabonds
Info: To read alchdata from file: coordinate pdb file (default)
Info: To read alchflag data from column: 5
Info: LONG-RANGE LJ: APPLYING ANALYTICAL CORRECTIONS TO ENERGY AND PRESSURE
Info: LONG-RANGE LJ: AVERAGE A0 AND B0 COEFFICIENTS 260358 AND 191.259
Info: LONG-RANGE LJ: AVERAGE A1 AND B1 COEFFICIENTS 260358 AND 191.259
Info: STRUCTURE SUMMARY:
Info: 863 ATOMS
Info: 864 BONDS
Info: 1555 ANGLES
Info: 2262 DIHEDRALS
Info: 181 IMPROPERS
Info: 54 CROSSTERMS
Info: 0 EXCLUSIONS
Info: 440 RIGID BONDS
Info: ALCH: 0 ATOMS TO DISAPPEAR IN FINAL STATE
Info: ALCH: 0 ATOMS TO APPEAR IN FINAL STATE
Info: 2149 DEGREES OF FREEDOM
Info: 423 HYDROGEN GROUPS
Info: 4 ATOMS IN LARGEST HYDROGEN GROUP
Info: 423 MIGRATION GROUPS
Info: 4 ATOMS IN LARGEST MIGRATION GROUP
Info: TOTAL MASS = 6022.82 amu
Info: TOTAL CHARGE = -2 e
Info: MASS DENSITY = 0.0463026 g/cm^3
Info: ATOM DENSITY = 0.00399537 atoms/A^3
Info: ADDED 4679 IMPLICIT EXCLUSIONS
Info: NONBONDED TABLE R-SQUARED SPACING: 0.0625
Info: NONBONDED TABLE SIZE: 769 POINTS
Info: REMOVING COM VELOCITY -0.195836 -0.166791 -0.00476597
TCL: Setting parameter alchLambdaFreq to 1
Info: NONBONDED TABLE R-SQUARED SPACING: 0.0625
Info: NONBONDED TABLE SIZE: 769 POINTS
TCL: Setting parameter alch to off
Info: NONBONDED TABLE R-SQUARED SPACING: 0.0625
Info: NONBONDED TABLE SIZE: 769 POINTS
TCL: namdcph) initializing constant pH PSF...
TCL: cphpsfgen) creating new alchemical side chain for PP1:918:GLU
TCL: cphpsfgen) merging alchemical sidechains for PP1:918:GLU
TCL: cphpsfgen) creating new alchemical side chain for PP1:921:LYS
TCL: cphpsfgen) merging alchemical sidechains for PP1:921:LYS
TCL: cphpsfgen) creating new alchemical side chain for PP1:933:LYS
TCL: cphpsfgen) merging alchemical sidechains for PP1:933:LYS
TCL: cphpsfgen) creating new alchemical side chain for PP1:936:ASP
TCL: cphpsfgen) merging alchemical sidechains for PP1:936:ASP
TCL: cphpsfgen) creating new alchemical side chain for PP1:947:LYS
TCL: cphpsfgen) merging alchemical sidechains for PP1:947:LYS
TCL: cphpsfgen) creating new alchemical side chain for PP1:964:LYS
TCL: cphpsfgen) merging alchemical sidechains for PP1:964:LYS
TCL: namdcph) ***************************************
TCL: namdcph) CONSTANT pH MD ACTIVE
TCL: namdcph) RESTART FILENAME 14/Pre14_0.cphrst
TCL: namdcph) SYSTEM pH 14
TCL: namdcph) CONSTANT pH CONFIGURATION FILE(S)
TCL: namdcph) ../../toppar/conf_cph36_prot.json
TCL: namdcph) NONEQUILIBRIUM SWITCH PARAMETERS:
TCL: namdcph) ALCHEMICAL FORCE CONSTANT 100.0 kcal/mol-A^2
TCL: namdcph) neMD/MC CRITERION TEMPERATURE 298.0
TCL: namdcph) TEMPORARY FILE INFORMATION:
TCL: namdcph) cpH TOPOLOGY FILE BASENAME 14/namdcph.md
TCL: namdcph) neMD/MC TRAJECTORY BASENAME 14/namdcph.sw
TCL: namdcph) ***************************************
TCL: namdcph) ***************************************
TCL: namdcph) TITRATABLE RESIDUE DEFINITIONS:
TCL: namdcph) HIS ASP GLU CYS LYS
TCL: namdcph) TITRATABLE SYSTEM SUMMARY:
TCL: namdcph) 6 RESIDUE(S)
TCL: namdcph) 16 PROTONATION SITE(S)
TCL: namdcph) ***************************************
TCL: namdcph) segid:resid:resname : state : pKai
TCL: namdcph) PP1:918:GLU         :     D : 4.68
TCL: namdcph) PP1:921:LYS         :     1 : 10.47
TCL: namdcph) PP1:933:LYS         :     2 : 10.42
TCL: namdcph) PP1:936:ASP         :     D : 3.83
TCL: namdcph) PP1:947:LYS         :     3 : 10.47
TCL: namdcph) PP1:964:LYS         :     3 : 10.40
TCL: namdcph) ***************************************
TCL: namdcph) *************************************************
TCL: namdcph) CONSTANT pH neMD/MC MOVES:
TCL: namdcph) MAX. ATTEMPTS PER CYCLE: 1
TCL: namdcph) ONE RESIDUE MOVES
TCL: namdcph) move label     : numsteps   weight
TCL: namdcph) PP1:918:GLU    :    75000     1.00
TCL: namdcph) PP1:921:LYS    :    75000     1.00
TCL: namdcph) PP1:933:LYS    :    75000     1.00
TCL: namdcph) PP1:936:ASP    :    75000     1.00
TCL: namdcph) PP1:947:LYS    :    75000     1.00
TCL: namdcph) PP1:964:LYS    :    75000     1.00
TCL: namdcph) *************************************************
TCL: namdcph) clearing extraBondsFile 14/namdcph.sw.extrabonds
TCL: Reloading molecular structure from file 14/namdcph.md.psf and pdb file 14/namdcph.md.pdb
Info: READING EXTRA BONDS FILE 14/namdcph.sw.extrabonds
Info: LONG-RANGE LJ: APPLYING ANALYTICAL CORRECTIONS TO ENERGY AND PRESSURE
Info: LONG-RANGE LJ: AVERAGE A AND B COEFFICIENTS 260358 AND 191.259
Info: STRUCTURE SUMMARY:
Info: 863 ATOMS
Info: 864 BONDS
Info: 1555 ANGLES
Info: 2262 DIHEDRALS
Info: 181 IMPROPERS
Info: 54 CROSSTERMS
Info: 0 EXCLUSIONS
Info: 440 RIGID BONDS
Info: 2149 DEGREES OF FREEDOM
Info: 423 HYDROGEN GROUPS
Info: 4 ATOMS IN LARGEST HYDROGEN GROUP
Info: 423 MIGRATION GROUPS
Info: 4 ATOMS IN LARGEST MIGRATION GROUP
Info: TOTAL MASS = 6022.82 amu
Info: TOTAL CHARGE = -2 e
Info: MASS DENSITY = 0.0463026 g/cm^3
Info: ATOM DENSITY = 0.00399537 atoms/A^3
Info: ADDED 4679 IMPLICIT EXCLUSIONS
Info: NONBONDED TABLE R-SQUARED SPACING: 0.0625
Info: NONBONDED TABLE SIZE: 769 POINTS
TCL: Reinitializing atom data from files with basename 14/namdcph.md
Info: REMOVING COM VELOCITY -0.195836 -0.166791 -0.00476588
TCL: Minimizing for 100 steps
ETITLE: TS BOND ANGLE DIHED IMPRP ELECT VDW BOUNDARY MISC KINETIC TOTAL TEMP POTENTIAL TOTAL3 TEMPAVG PRESSURE GPRESSURE VOLUME PRESSAVG GPRESSAVG
ENERGY: 0 150.7985 497.0566 483.0634 28.8961 -1099.5026 -101.5996 0.0000 0.0000 0.0000 -41.2876 0.0000 -41.2876 -41.2876 0.0000 40.0286 -63.5746 216000.0000 40.0286 -63.5746
ENERGY: 20 49.3556 212.8222 447.4930 9.5905 -1113.1578 -148.9482 0.0000 0.0000 0.0000 -542.8446 0.0000 -542.8446 -542.8446 0.0000 -0.1843 -55.3038 216000.0000 -0.1843 -55.3038
ENERGY: 40 46.3860 193.3667 439.6758 8.6349 -1116.6142 -159.2749 0.0000 0.0000 0.0000 -587.8257 0.0000 -587.8257 -587.8257 0.0000 -16.3326 -67.0825 216000.0000 -16.3326 -67.0825
ENERGY: 60 68.9168 192.8409 429.6600 7.5871 -1111.6994 -168.0085 0.0000 0.0000 0.0000 -580.7030 0.0000 -580.7030 -580.7030 0.0000 -46.1371 -85.5801 216000.0000 -46.1371 -85.5801
ENERGY: 80 185.0431 277.1592 435.1839 29.7884 -1119.0519 -169.1436 0.0000 0.0000 0.0000 -361.0209 0.0000 -361.0209 -361.0209 0.0000 1.1003 -59.5264 216000.0000 1.1003 -59.5264
ENERGY: 100 41.4061 168.0376 420.0006 7.0009 -1121.0963 -170.1521 0.0000 0.0000 0.0000 -654.8032 0.0000 -654.8032 -654.8032 0.0000 -17.7191 -65.7164 216000.0000 -17.7191 -65.7164
TCL: Setting parameter firstTimeStep to 0
TCL: Running for 1000 steps
ETITLE: TS BOND ANGLE DIHED IMPRP ELECT VDW BOUNDARY MISC KINETIC TOTAL TEMP POTENTIAL TOTAL3 TEMPAVG PRESSURE GPRESSURE VOLUME PRESSAVG GPRESSAVG
ENERGY: 0 41.4061 168.0376 420.0006 7.0009 -1121.0963 -170.1521 0.0000 0.0000 617.3648 -37.4384 289.1318 -654.8032 -37.7433 289.1318 1.5707 1.7511 216000.0000 1.5707 1.7511
TCL: namdcph) Proposal rejected.
TCL: Running for 1000 steps without repeating first step
TCL: namdcph) Proposal rejected.
TCL: Running for 1000 steps without repeating first step
TCL: namdcph) Proposal rejected.
TCL: Running for 1000 steps without repeating first step
TCL: namdcph) Proposal rejected.
TCL: Running for 1000 steps without repeating first step
ETITLE: TS BOND ANGLE DIHED IMPRP ELECT VDW BOUNDARY MISC KINETIC TOTAL TEMP POTENTIAL TOTAL3 TEMPAVG PRESSURE GPRESSURE VOLUME PRESSAVG GPRESSAVG
ENERGY: 5000 169.7167 504.5735 468.7476 30.9043 -1110.6235 -123.7950 0.0000 0.0000 653.3984 592.9220 306.0075 -60.4764 601.9308 268.6097 -79.3948 -83.8992 216000.0000 -6.4004 -6.4143
TCL: namdcph) Proposal rejected.
TCL: Running for 1000 steps without repeating first step
TCL: namdcph) Proposal rejected.
TCL: Running for 1000 steps without repeating first step
TCL: namdcph) Proposal rejected.
TCL: Running for 1000 steps without repeating first step
TCL: namdcph) Proposal rejected.
TCL: Running for 1000 steps without repeating first step
TCL: namdcph) Proposal rejected.
TCL: Running for 1000 steps without repeating first step
ETITLE: TS BOND ANGLE DIHED IMPRP ELECT VDW BOUNDARY MISC KINETIC TOTAL TEMP POTENTIAL TOTAL3 TEMPAVG PRESSURE GPRESSURE VOLUME PRESSAVG GPRESSAVG
ENERGY: 10000 181.3807 517.6794 499.4895 36.9543 -1113.4317 -130.7345 0.0000 0.0000 638.1245 629.4622 298.8542 -8.6623 636.3693 298.6948 -49.6662 -53.4028 216000.0000 0.4526 0.4636
TCL: namdcph) Proposal rejected.
TCL: Running for 1000 steps without repeating first step
TCL: namdcph) Proposal rejected.
TCL: Running for 1000 steps without repeating first step
TCL: namdcph) Proposal rejected.
TCL: Running for 1000 steps without repeating first step
TCL: namdcph) Proposal rejected.
TCL: Running for 1000 steps without repeating first step
TCL: namdcph) Proposal rejected.
TCL: Running for 1000 steps without repeating first step
ETITLE: TS BOND ANGLE DIHED IMPRP ELECT VDW BOUNDARY MISC KINETIC TOTAL TEMP POTENTIAL TOTAL3 TEMPAVG PRESSURE GPRESSURE VOLUME PRESSAVG GPRESSAVG
ENERGY: 15000 169.4650 488.7937 494.0231 36.2064 -1117.3442 -116.4313 0.0000 0.0000 648.4918 603.2043 303.7095 -45.2874 611.7554 298.7640 36.1401 36.2639 216000.0000 -2.2705 -2.2716
TCL: namdcph) Proposal rejected.
TCL: Running for 1000 steps without repeating first step
TCL: namdcph) Proposal rejected.
TCL: Running for 1000 steps without repeating first step
TCL: namdcph) Proposal rejected.
TCL: Running for 1000 steps without repeating first step
TCL: namdcph) Proposal rejected.
TCL: Running for 1000 steps without repeating first step
TCL: namdcph) Proposal rejected.
TCL: Running for 1000 steps without repeating first step
ETITLE: TS BOND ANGLE DIHED IMPRP ELECT VDW BOUNDARY MISC KINETIC TOTAL TEMP POTENTIAL TOTAL3 TEMPAVG PRESSURE GPRESSURE VOLUME PRESSAVG GPRESSAVG
ENERGY: 20000 154.3507 486.0148 487.6838 33.7399 -1094.1589 -136.3003 0.0000 0.0000 645.0068 576.3368 302.0774 -68.6701 585.3875 293.7542 -69.9505 -68.5881 216000.0000 -2.1589 -2.1475
TCL: namdcph) Proposal rejected.
TCL: Running for 1000 steps without repeating first step
TCL: namdcph) Proposal rejected.
TCL: Running for 1000 steps without repeating first step
TCL: namdcph) Proposal rejected.
TCL: Running for 1000 steps without repeating first step
TCL: namdcph) Proposal rejected.
TCL: Running for 1000 steps without repeating first step
TCL: namdcph) Proposal rejected.
TCL: Running for 1000 steps without repeating first step
ETITLE: TS BOND ANGLE DIHED IMPRP ELECT VDW BOUNDARY MISC KINETIC TOTAL TEMP POTENTIAL TOTAL3 TEMPAVG PRESSURE GPRESSURE VOLUME PRESSAVG GPRESSAVG
ENERGY: 25000 146.2671 492.4453 487.7049 31.3189 -1097.9382 -130.0883 0.0000 0.0000 616.3070 546.0168 288.6364 -70.2902 553.6170 294.1958 -11.8886 -14.0473 216000.0000 -2.9879 -2.9806
TCL: namdcph) Proposal rejected.
TCL: Running for 1000 steps without repeating first step
TCL: namdcph) Proposal rejected.
TCL: Running for 1000 steps without repeating first step
TCL: namdcph) Proposal rejected.
TCL: Running for 1000 steps without repeating first step
TCL: namdcph) Proposal rejected.
TCL: Running for 1000 steps without repeating first step
TCL: namdcph) Proposal rejected.
TCL: Running for 1000 steps without repeating first step
ETITLE: TS BOND ANGLE DIHED IMPRP ELECT VDW BOUNDARY MISC KINETIC TOTAL TEMP POTENTIAL TOTAL3 TEMPAVG PRESSURE GPRESSURE VOLUME PRESSAVG GPRESSAVG
ENERGY: 30000 158.3081 513.8716 480.4335 41.6869 -1118.9687 -110.4345 0.0000 0.0000 643.3149 608.2118 301.2851 -35.1031 616.4384 295.2614 100.8622 101.8649 216000.0000 -6.3596 -6.3693
TCL: namdcph) Proposal rejected.
TCL: Running for 1000 steps without repeating first step
TCL: namdcph) Proposal rejected.
TCL: Running for 1000 steps without repeating first step
TCL: namdcph) Proposal rejected.
TCL: Running for 1000 steps without repeating first step
TCL: namdcph) Proposal rejected.
TCL: Running for 1000 steps without repeating first step
TCL: namdcph) Proposal rejected.
TCL: Running for 1000 steps without repeating first step
ETITLE: TS BOND ANGLE DIHED IMPRP ELECT VDW BOUNDARY MISC KINETIC TOTAL TEMP POTENTIAL TOTAL3 TEMPAVG PRESSURE GPRESSURE VOLUME PRESSAVG GPRESSAVG
ENERGY: 35000 179.3294 503.7957 474.8187 36.7951 -1116.5277 -114.9471 0.0000 0.0000 614.7555 578.0196 287.9098 -36.7359 586.5243 295.6502 -13.9480 -12.5065 216000.0000 -3.8146 -3.8206
TCL: namdcph) Proposal rejected.
TCL: Running for 1000 steps without repeating first step
TCL: namdcph) Proposal rejected.
TCL: Running for 1000 steps without repeating first step
TCL: namdcph) Proposal rejected.
TCL: Running for 1000 steps without repeating first step
TCL: namdcph) Proposal rejected.
TCL: Running for 1000 steps without repeating first step
TCL: namdcph) Proposal rejected.
TCL: Running for 1000 steps without repeating first step
ETITLE: TS BOND ANGLE DIHED IMPRP ELECT VDW BOUNDARY MISC KINETIC TOTAL TEMP POTENTIAL TOTAL3 TEMPAVG PRESSURE GPRESSURE VOLUME PRESSAVG GPRESSAVG
ENERGY: 40000 161.9618 500.1695 479.7015 34.9813 -1102.2316 -103.6414 0.0000 0.0000 608.0186 578.9597 284.7546 -29.0588 585.6695 292.7634 -119.2903 -118.7360 216000.0000 -2.1128 -2.1020
TCL: namdcph) Proposal rejected.
TCL: Running for 1000 steps without repeating first step
TCL: namdcph) Proposal rejected.
TCL: Running for 1000 steps without repeating first step
TCL: namdcph) Proposal rejected.
TCL: Running for 1000 steps without repeating first step
TCL: namdcph) Proposal rejected.
TCL: Running for 1000 steps without repeating first step
TCL: namdcph) Proposal rejected.
TCL: Running for 1000 steps without repeating first step
ETITLE: TS BOND ANGLE DIHED IMPRP ELECT VDW BOUNDARY MISC KINETIC TOTAL TEMP POTENTIAL TOTAL3 TEMPAVG PRESSURE GPRESSURE VOLUME PRESSAVG GPRESSAVG
ENERGY: 45000 158.9570 528.6390 480.3677 33.9591 -1140.0738 -131.2935 0.0000 0.0000 661.9061 592.4614 309.9919 -69.4446 600.0804 292.4778 37.1735 38.1786 216000.0000 -6.2395 -6.2393
TCL: namdcph) Proposal rejected.
TCL: Running for 1000 steps without repeating first step
TCL: namdcph) Proposal rejected.
TCL: Running for 1000 steps without repeating first step
TCL: namdcph) Proposal rejected.
TCL: Running for 1000 steps without repeating first step
TCL: namdcph) Proposal rejected.
TCL: Running for 1000 steps without repeating first step
TCL: namdcph) Proposal rejected.
TCL: Running for 1000 steps without repeating first step
ETITLE: TS BOND ANGLE DIHED IMPRP ELECT VDW BOUNDARY MISC KINETIC TOTAL TEMP POTENTIAL TOTAL3 TEMPAVG PRESSURE GPRESSURE VOLUME PRESSAVG GPRESSAVG
ENERGY: 50000 162.9159 480.5324 476.6685 31.7381 -1101.4139 -135.7275 0.0000 0.0000 620.7802 535.4937 290.7313 -85.2865 544.7700 294.1535 22.9101 22.4304 216000.0000 -7.1579 -7.1478
TCL: namdcph) Proposal rejected.
TCL: Running for 1000 steps without repeating first step
TCL: namdcph) Proposal rejected.
TCL: Running for 1000 steps without repeating first step
TCL: namdcph) Proposal rejected.
TCL: Running for 1000 steps without repeating first step
TCL: namdcph) Proposal rejected.
TCL: Running for 1000 steps without repeating first step
TCL: namdcph) Proposal rejected.
TCL: Running for 1000 steps without repeating first step
ETITLE: TS BOND ANGLE DIHED IMPRP ELECT VDW BOUNDARY MISC KINETIC TOTAL TEMP POTENTIAL TOTAL3 TEMPAVG PRESSURE GPRESSURE VOLUME PRESSAVG GPRESSAVG
ENERGY: 55000 157.2237 459.1230 484.5607 43.8148 -1111.8907 -119.4208 0.0000 0.0000 622.0442 535.4549 291.3233 -86.5893 542.3073 289.9995 -55.9137 -58.2845 216000.0000 -3.9384 -3.9438
TCL: namdcph) Proposal rejected.
TCL: Running for 1000 steps without repeating first step
TCL: namdcph) Proposal rejected.
TCL: Running for 1000 steps without repeating first step
TCL: namdcph) Proposal rejected.
TCL: Running for 1000 steps without repeating first step
TCL: namdcph) Proposal rejected.
TCL: Running for 1000 steps without repeating first step
TCL: namdcph) Proposal rejected.
TCL: Running for 1000 steps without repeating first step
ETITLE: TS BOND ANGLE DIHED IMPRP ELECT VDW BOUNDARY MISC KINETIC TOTAL TEMP POTENTIAL TOTAL3 TEMPAVG PRESSURE GPRESSURE VOLUME PRESSAVG GPRESSAVG
ENERGY: 60000 168.2453 512.4442 472.2107 39.1810 -1111.2445 -119.3577 0.0000 0.0000 654.2097 615.6887 306.3874 -38.5210 623.3808 299.5462 138.2582 139.3580 216000.0000 -4.2405 -4.2509
TCL: namdcph) Proposal rejected.
TCL: Running for 1000 steps without repeating first step
TCL: namdcph) Proposal rejected.
TCL: Running for 1000 steps without repeating first step
TCL: namdcph) Proposal rejected.
TCL: Running for 1000 steps without repeating first step
TCL: namdcph) Proposal rejected.
TCL: Running for 1000 steps without repeating first step
TCL: namdcph) Proposal rejected.
TCL: Running for 1000 steps without repeating first step
ETITLE: TS BOND ANGLE DIHED IMPRP ELECT VDW BOUNDARY MISC KINETIC TOTAL TEMP POTENTIAL TOTAL3 TEMPAVG PRESSURE GPRESSURE VOLUME PRESSAVG GPRESSAVG
ENERGY: 65000 169.8613 509.3217 496.3596 24.4156 -1115.6389 -141.3693 0.0000 0.0000 675.5376 618.4876 316.3760 -57.0499 626.4255 308.3328 -106.3987 -107.2767 216000.0000 0.3035 0.2985
TCL: namdcph) Proposal rejected.
TCL: Running for 1000 steps without repeating first step
TCL: namdcph) Proposal rejected.
TCL: Running for 1000 steps without repeating first step
TCL: namdcph) Proposal rejected.
TCL: Running for 1000 steps without repeating first step
TCL: namdcph) Proposal rejected.
TCL: Running for 1000 steps without repeating first step
TCL: namdcph) Proposal rejected.
TCL: Running for 1000 steps without repeating first step
ETITLE: TS BOND ANGLE DIHED IMPRP ELECT VDW BOUNDARY MISC KINETIC TOTAL TEMP POTENTIAL TOTAL3 TEMPAVG PRESSURE GPRESSURE VOLUME PRESSAVG GPRESSAVG
ENERGY: 70000 161.0770 475.1585 479.3493 34.7054 -1122.1724 -114.0782 0.0000 0.0000 616.3228 530.3624 288.6438 -85.9604 537.1895 292.6930 -6.5188 -5.7924 216000.0000 -5.3920 -5.3975
TCL: namdcph) Proposal rejected.
TCL: Running for 1000 steps without repeating first step
TCL: namdcph) Proposal rejected.
TCL: Running for 1000 steps without repeating first step
TCL: namdcph) Proposal rejected.
TCL: Running for 1000 steps without repeating first step
TCL: namdcph) Proposal rejected.
TCL: Running for 1000 steps without repeating first step
TCL: namdcph) Proposal rejected.
TCL: Running for 1000 steps without repeating first step
ETITLE: TS BOND ANGLE DIHED IMPRP ELECT VDW BOUNDARY MISC KINETIC TOTAL TEMP POTENTIAL TOTAL3 TEMPAVG PRESSURE GPRESSURE VOLUME PRESSAVG GPRESSAVG
ENERGY: 75000 172.3415 485.5868 489.9859 31.3713 -1103.2774 -123.1101 0.0000 0.0000 609.9927 562.8908 285.6792 -47.1019 569.7607 296.3094 3.7756 3.1826 216000.0000 -3.7694 -3.7746
TCL: namdcph) Proposal rejected.
TCL: Running for 1000 steps without repeating first step
TCL: namdcph) Proposal rejected.
TCL: Running for 1000 steps without repeating first step
TCL: namdcph) Proposal rejected.
TCL: Running for 1000 steps without repeating first step
TCL: namdcph) Proposal rejected.
TCL: Running for 1000 steps without repeating first step
TCL: namdcph) Proposal rejected.
TCL: Running for 1000 steps without repeating first step
ETITLE: TS BOND ANGLE DIHED IMPRP ELECT VDW BOUNDARY MISC KINETIC TOTAL TEMP POTENTIAL TOTAL3 TEMPAVG PRESSURE GPRESSURE VOLUME PRESSAVG GPRESSAVG
ENERGY: 80000 184.4040 480.7076 492.3332 35.6299 -1123.7265 -117.5428 0.0000 0.0000 630.1563 581.9618 295.1225 -48.1946 589.1091 300.0789 -49.2450 -50.3331 216000.0000 -3.0099 -3.0136
TCL: namdcph) Proposal rejected.
TCL: Running for 1000 steps without repeating first step
TCL: namdcph) Proposal rejected.
TCL: Running for 1000 steps without repeating first step
TCL: namdcph) Proposal rejected.
TCL: Running for 1000 steps without repeating first step
TCL: namdcph) Proposal rejected.
TCL: Running for 1000 steps without repeating first step
TCL: namdcph) Proposal rejected.
TCL: Running for 1000 steps without repeating first step
ETITLE: TS BOND ANGLE DIHED IMPRP ELECT VDW BOUNDARY MISC KINETIC TOTAL TEMP POTENTIAL TOTAL3 TEMPAVG PRESSURE GPRESSURE VOLUME PRESSAVG GPRESSAVG
ENERGY: 85000 168.8680 475.2593 483.7413 31.9730 -1125.4267 -121.4574 0.0000 0.0000 651.9632 564.9208 305.3353 -87.0424 574.4763 295.8446 -52.1735 -51.1096 216000.0000 -6.2546 -6.2439
TCL: namdcph) Proposal rejected.
TCL: Running for 1000 steps without repeating first step
TCL: namdcph) Proposal rejected.
TCL: Running for 1000 steps without repeating first step
TCL: namdcph) Proposal rejected.
TCL: Running for 1000 steps without repeating first step
TCL: namdcph) Proposal rejected.
TCL: Running for 1000 steps without repeating first step
TCL: namdcph) Proposal rejected.
TCL: Running for 1000 steps without repeating first step
ETITLE: TS BOND ANGLE DIHED IMPRP ELECT VDW BOUNDARY MISC KINETIC TOTAL TEMP POTENTIAL TOTAL3 TEMPAVG PRESSURE GPRESSURE VOLUME PRESSAVG GPRESSAVG
ENERGY: 90000 160.2555 505.6528 485.0317 35.3332 -1119.8041 -141.8839 0.0000 0.0000 652.6811 577.2663 305.6715 -75.4148 586.0700 295.6116 -3.3425 -3.7646 216000.0000 0.2226 0.2100
TCL: namdcph) Proposal rejected.
TCL: Running for 1000 steps without repeating first step
TCL: namdcph) Proposal rejected.
TCL: Running for 1000 steps without repeating first step
TCL: namdcph) Proposal rejected.
TCL: Running for 1000 steps without repeating first step
TCL: namdcph) Proposal rejected.
TCL: Running for 1000 steps without repeating first step
TCL: namdcph) Proposal rejected.
TCL: Running for 1000 steps without repeating first step
ETITLE: TS BOND ANGLE DIHED IMPRP ELECT VDW BOUNDARY MISC KINETIC TOTAL TEMP POTENTIAL TOTAL3 TEMPAVG PRESSURE GPRESSURE VOLUME PRESSAVG GPRESSAVG
ENERGY: 95000 162.3711 501.3173 478.1671 31.1323 -1138.4675 -116.5195 0.0000 0.0000 634.3685 552.3693 297.0951 -81.9992 561.8004 296.4388 43.4376 41.7508 216000.0000 -6.2337 -6.2349
TCL: namdcph) Proposal rejected.
TCL: Running for 1000 steps without repeating first step
TCL: namdcph) Proposal rejected.
TCL: Running for 1000 steps without repeating first step
TCL: namdcph) Proposal rejected.
TCL: Running for 1000 steps without repeating first step
TCL: namdcph) Proposal rejected.
TCL: Running for 1000 steps without repeating first step
TCL: namdcph) Proposal rejected.
TCL: Running for 1000 steps without repeating first step
ETITLE: TS BOND ANGLE DIHED IMPRP ELECT VDW BOUNDARY MISC KINETIC TOTAL TEMP POTENTIAL TOTAL3 TEMPAVG PRESSURE GPRESSURE VOLUME PRESSAVG GPRESSAVG
ENERGY: 100000 163.2530 488.5183 473.3168 38.2943 -1109.2237 -127.9227 0.0000 0.0000 632.0146 558.2507 295.9927 -73.7639 565.4412 292.3585 3.7446 2.5495 216000.0000 -0.8522 -0.8700
TCL: namdcph) Proposal rejected.
TCL: Running for 1000 steps without repeating first step
TCL: namdcph) Proposal rejected.
TCL: Running for 1000 steps without repeating first step
TCL: namdcph) Proposal rejected.
TCL: Running for 1000 steps without repeating first step
TCL: namdcph) Proposal rejected.
TCL: Running for 1000 steps without repeating first step
TCL: namdcph) Proposal rejected.
TCL: Running for 1000 steps without repeating first step
ETITLE: TS BOND ANGLE DIHED IMPRP ELECT VDW BOUNDARY MISC KINETIC TOTAL TEMP POTENTIAL TOTAL3 TEMPAVG PRESSURE GPRESSURE VOLUME PRESSAVG GPRESSAVG
ENERGY: 105000 170.7858 488.7214 471.7165 38.7826 -1118.0296 -117.8540 0.0000 0.0000 631.4705 565.5932 295.7380 -65.8773 572.5890 300.0823 37.7081 36.2220 216000.0000 -4.5374 -4.5457
TCL: namdcph) Proposal rejected.
TCL: Running for 1000 steps without repeating first step
TCL: namdcph) Proposal rejected.
TCL: Running for 1000 steps without repeating first step
TCL: namdcph) Proposal rejected.
TCL: Running for 1000 steps without repeating first step
TCL: namdcph) Proposal rejected.
TCL: Running for 1000 steps without repeating first step
TCL: namdcph) Proposal rejected.
TCL: Running for 1000 steps without repeating first step
ETITLE: TS BOND ANGLE DIHED IMPRP ELECT VDW BOUNDARY MISC KINETIC TOTAL TEMP POTENTIAL TOTAL3 TEMPAVG PRESSURE GPRESSURE VOLUME PRESSAVG GPRESSAVG
ENERGY: 110000 171.0736 524.9572 485.7354 34.3092 -1125.3106 -133.0779 0.0000 0.0000 637.6296 595.3165 298.6224 -42.3132 602.9648 298.1709 35.0815 36.8122 216000.0000 -4.6284 -4.6236
TCL: namdcph) Proposal rejected.
TCL: Running for 1000 steps without repeating first step
TCL: namdcph) Proposal rejected.
TCL: Running for 1000 steps without repeating first step
TCL: namdcph) Proposal rejected.
TCL: Running for 1000 steps without repeating first step
TCL: namdcph) Proposal rejected.
TCL: Running for 1000 steps without repeating first step
TCL: namdcph) Proposal rejected.
TCL: Running for 1000 steps without repeating first step
ETITLE: TS BOND ANGLE DIHED IMPRP ELECT VDW BOUNDARY MISC KINETIC TOTAL TEMP POTENTIAL TOTAL3 TEMPAVG PRESSURE GPRESSURE VOLUME PRESSAVG GPRESSAVG
ENERGY: 115000 166.4262 512.9005 482.7365 38.1947 -1099.9143 -131.1615 0.0000 0.0000 636.5019 605.6839 298.0943 -30.8180 613.3298 298.8078 -89.9447 -89.0045 216000.0000 -8.5600 -8.5577
TCL: namdcph) Proposal rejected.
TCL: Running for 1000 steps without repeating first step
TCL: namdcph) Proposal rejected.
TCL: Running for 1000 steps without repeating first step
TCL: namdcph) Proposal rejected.
TCL: Running for 1000 steps without repeating first step
TCL: namdcph) Proposal rejected.
TCL: Running for 1000 steps without repeating first step
TCL: namdcph) Proposal rejected.
TCL: Running for 1000 steps without repeating first step
ETITLE: TS BOND ANGLE DIHED IMPRP ELECT VDW BOUNDARY MISC KINETIC TOTAL TEMP POTENTIAL TOTAL3 TEMPAVG PRESSURE GPRESSURE VOLUME PRESSAVG GPRESSAVG
ENERGY: 120000 165.4377 498.5669 474.1370 38.7756 -1124.6832 -122.7164 0.0000 0.0000 663.1707 592.6882 310.5842 -70.4825 600.8069 299.7658 71.6094 69.1502 216000.0000 -1.5261 -1.5224
TCL: namdcph) Proposal rejected.
TCL: Running for 1000 steps without repeating first step
TCL: namdcph) Proposal rejected.
TCL: Running for 1000 steps without repeating first step
TCL: namdcph) Proposal rejected.
TCL: Running for 1000 steps without repeating first step
TCL: namdcph) Proposal rejected.
TCL: Running for 1000 steps without repeating first step
TCL: namdcph) Proposal rejected.
TCL: Running for 1000 steps without repeating first step
ETITLE: TS BOND ANGLE DIHED IMPRP ELECT VDW BOUNDARY MISC KINETIC TOTAL TEMP POTENTIAL TOTAL3 TEMPAVG PRESSURE GPRESSURE VOLUME PRESSAVG GPRESSAVG
ENERGY: 125000 158.1569 519.2341 489.9889 34.5997 -1125.0102 -111.1961 0.0000 0.0000 604.3015 570.0748 283.0138 -34.2267 576.0378 299.0307 111.8171 109.9965 216000.0000 -2.3009 -2.2962
TCL: namdcph) Proposal rejected.
TCL: Running for 1000 steps without repeating first step
TCL: namdcph) Proposal rejected.
TCL: Running for 1000 steps without repeating first step
TCL: namdcph) Proposal rejected.
TCL: Running for 1000 steps without repeating first step
TCL: namdcph) Proposal rejected.
TCL: Running for 1000 steps without repeating first step
TCL: namdcph) Proposal rejected.
TCL: Running for 1000 steps without repeating first step
ETITLE: TS BOND ANGLE DIHED IMPRP ELECT VDW BOUNDARY MISC KINETIC TOTAL TEMP POTENTIAL TOTAL3 TEMPAVG PRESSURE GPRESSURE VOLUME PRESSAVG GPRESSAVG
ENERGY: 130000 187.9356 489.6530 481.7517 33.7904 -1114.4966 -124.3767 0.0000 0.0000 600.5555 554.8129 281.2595 -45.7426 561.6369 299.4580 -90.6038 -90.6032 216000.0000 -0.1057 -0.1104
TCL: namdcph) Proposal rejected.
TCL: Running for 1000 steps without repeating first step
TCL: namdcph) Proposal rejected.
TCL: Running for 1000 steps without repeating first step
TCL: namdcph) Proposal rejected.
TCL: Running for 1000 steps without repeating first step
TCL: namdcph) Proposal rejected.
TCL: Running for 1000 steps without repeating first step
TCL: namdcph) Proposal rejected.
TCL: Running for 1000 steps without repeating first step
ETITLE: TS BOND ANGLE DIHED IMPRP ELECT VDW BOUNDARY MISC KINETIC TOTAL TEMP POTENTIAL TOTAL3 TEMPAVG PRESSURE GPRESSURE VOLUME PRESSAVG GPRESSAVG
ENERGY: 135000 167.9222 500.3104 487.3124 31.1530 -1116.6196 -147.5759 0.0000 0.0000 661.4613 583.9640 309.7836 -77.4974 593.9009 293.3792 -130.1786 -128.8005 216000.0000 -1.9505 -1.9609
TCL: namdcph) Proposal rejected.
TCL: Running for 1000 steps without repeating first step
TCL: namdcph) Proposal rejected.
TCL: Running for 1000 steps without repeating first step
TCL: namdcph) Proposal rejected.
TCL: Running for 1000 steps without repeating first step
TCL: namdcph) Proposal rejected.
TCL: Running for 1000 steps without repeating first step
TCL: namdcph) Proposal rejected.
TCL: Running for 1000 steps without repeating first step
ETITLE: TS BOND ANGLE DIHED IMPRP ELECT VDW BOUNDARY MISC KINETIC TOTAL TEMP POTENTIAL TOTAL3 TEMPAVG PRESSURE GPRESSURE VOLUME PRESSAVG GPRESSAVG
ENERGY: 140000 160.7038 529.9873 486.7156 28.8213 -1112.6748 -137.1163 0.0000 0.0000 627.0936 583.5306 293.6881 -43.5630 590.1183 295.7967 -24.4348 -24.3555 216000.0000 -2.9615 -2.9694
TCL: namdcph) Proposal rejected.
TCL: Running for 1000 steps without repeating first step
TCL: namdcph) Proposal rejected.
TCL: Running for 1000 steps without repeating first step
TCL: namdcph) Proposal rejected.
TCL: Running for 1000 steps without repeating first step
TCL: namdcph) Proposal rejected.
TCL: Running for 1000 steps without repeating first step
TCL: namdcph) Proposal rejected.
TCL: Running for 1000 steps without repeating first step
ETITLE: TS BOND ANGLE DIHED IMPRP ELECT VDW BOUNDARY MISC KINETIC TOTAL TEMP POTENTIAL TOTAL3 TEMPAVG PRESSURE GPRESSURE VOLUME PRESSAVG GPRESSAVG
ENERGY: 145000 184.5864 508.5246 463.4824 33.5067 -1089.5159 -143.5442 0.0000 0.0000 648.4437 605.4836 303.6870 -42.9602 613.9077 303.7470 -39.6297 -42.1072 216000.0000 -3.7641 -3.7758
TCL: namdcph) Proposal rejected.
TCL: Running for 1000 steps without repeating first step
TCL: namdcph) Proposal rejected.
TCL: Running for 1000 steps without repeating first step
TCL: namdcph) Proposal rejected.
TCL: Running for 1000 steps without repeating first step
TCL: namdcph) Proposal rejected.
TCL: Running for 1000 steps without repeating first step
TCL: namdcph) Proposal rejected.
TCL: Running for 1000 steps without repeating first step
ETITLE: TS BOND ANGLE DIHED IMPRP ELECT VDW BOUNDARY MISC KINETIC TOTAL TEMP POTENTIAL TOTAL3 TEMPAVG PRESSURE GPRESSURE VOLUME PRESSAVG GPRESSAVG
ENERGY: 150000 154.2469 502.7575 485.5387 30.1862 -1103.3118 -121.0888 0.0000 0.0000 666.1975 614.5261 312.0017 -51.6714 623.2919 292.8380 70.5626 68.9743 216000.0000 -4.7378 -4.7562
TCL: namdcph) Proposal rejected.
TCL: Running for 1000 steps without repeating first step
TCL: namdcph) Proposal rejected.
TCL: Running for 1000 steps without repeating first step
TCL: namdcph) Proposal rejected.
TCL: Running for 1000 steps without repeating first step
TCL: namdcph) Proposal rejected.
TCL: Running for 1000 steps without repeating first step
TCL: namdcph) Proposal rejected.
TCL: Running for 1000 steps without repeating first step
ETITLE: TS BOND ANGLE DIHED IMPRP ELECT VDW BOUNDARY MISC KINETIC TOTAL TEMP POTENTIAL TOTAL3 TEMPAVG PRESSURE GPRESSURE VOLUME PRESSAVG GPRESSAVG
ENERGY: 155000 156.8596 509.6371 464.8228 32.0736 -1102.0906 -125.3764 0.0000 0.0000 618.4947 554.4208 289.6609 -64.0738 561.3714 296.7497 -49.3207 -50.1797 216000.0000 -3.3671 -3.3784
TCL: namdcph) Proposal rejected.
TCL: Running for 1000 steps without repeating first step
TCL: namdcph) Proposal rejected.
TCL: Running for 1000 steps without repeating first step
TCL: namdcph) Proposal rejected.
TCL: Running for 1000 steps without repeating first step
TCL: namdcph) Proposal rejected.
TCL: Running for 1000 steps without repeating first step
TCL: namdcph) Proposal rejected.
TCL: Running for 1000 steps without repeating first step
ETITLE: TS BOND ANGLE DIHED IMPRP ELECT VDW BOUNDARY MISC KINETIC TOTAL TEMP POTENTIAL TOTAL3 TEMPAVG PRESSURE GPRESSURE VOLUME PRESSAVG GPRESSAVG
ENERGY: 160000 145.4747 518.7460 479.1895 29.6968 -1115.0418 -135.9485 0.0000 0.0000 623.4757 545.5924 291.9937 -77.8834 552.8399 295.3145 114.0191 112.1060 216000.0000 -5.6573 -5.6568
TCL: namdcph) Proposal rejected.
TCL: Running for 1000 steps without repeating first step
TCL: namdcph) Proposal rejected.
TCL: Running for 1000 steps without repeating first step
TCL: namdcph) Proposal rejected.
TCL: Running for 1000 steps without repeating first step
TCL: namdcph) Proposal rejected.
TCL: Running for 1000 steps without repeating first step
TCL: namdcph) Proposal rejected.
TCL: Running for 1000 steps without repeating first step
ETITLE: TS BOND ANGLE DIHED IMPRP ELECT VDW BOUNDARY MISC KINETIC TOTAL TEMP POTENTIAL TOTAL3 TEMPAVG PRESSURE GPRESSURE VOLUME PRESSAVG GPRESSAVG
ENERGY: 165000 143.9132 518.3728 473.1875 37.9149 -1092.8154 -128.0260 0.0000 0.0000 634.8280 587.3751 297.3104 -47.4529 596.6866 295.3721 8.6870 7.9189 216000.0000 -9.7741 -9.7665
TCL: namdcph) Proposal rejected.
TCL: Running for 1000 steps without repeating first step
TCL: namdcph) Proposal rejected.
TCL: Running for 1000 steps without repeating first step
TCL: namdcph) Proposal rejected.
TCL: Running for 1000 steps without repeating first step
TCL: namdcph) Proposal rejected.
TCL: Running for 1000 steps without repeating first step
TCL: namdcph) Proposal rejected.
TCL: Running for 1000 steps without repeating first step
ETITLE: TS BOND ANGLE DIHED IMPRP ELECT VDW BOUNDARY MISC KINETIC TOTAL TEMP POTENTIAL TOTAL3 TEMPAVG PRESSURE GPRESSURE VOLUME PRESSAVG GPRESSAVG
ENERGY: 170000 161.3789 494.6449 462.6936 39.9397 -1103.8477 -123.8504 0.0000 0.0000 596.4751 527.4342 279.3485 -69.0409 535.1963 298.6787 83.1148 85.1853 216000.0000 -3.9161 -3.9178
TCL: namdcph) Proposal rejected.
TCL: Running for 1000 steps without repeating first step
TCL: namdcph) Proposal rejected.
TCL: Running for 1000 steps without repeating first step
TCL: namdcph) Proposal rejected.
TCL: Running for 1000 steps without repeating first step
TCL: namdcph) Proposal rejected.
TCL: Running for 1000 steps without repeating first step
TCL: namdcph) Proposal rejected.
TCL: Running for 1000 steps without repeating first step
ETITLE: TS BOND ANGLE DIHED IMPRP ELECT VDW BOUNDARY MISC KINETIC TOTAL TEMP POTENTIAL TOTAL3 TEMPAVG PRESSURE GPRESSURE VOLUME PRESSAVG GPRESSAVG
ENERGY: 175000 189.3841 510.3232 486.2846 38.0590 -1137.2042 -129.5323 0.0000 0.0000 649.6558 606.9701 304.2547 -42.6857 617.0531 297.4811 -24.0108 -24.8724 216000.0000 -2.0859 -2.0955
TCL: namdcph) Proposal rejected.
TCL: Running for 1000 steps without repeating first step
TCL: namdcph) Proposal rejected.
TCL: Running for 1000 steps without repeating first step
TCL: namdcph) Proposal rejected.
TCL: Running for 1000 steps without repeating first step
TCL: namdcph) Proposal rejected.
TCL: Running for 1000 steps without repeating first step
TCL: namdcph) Proposal rejected.
TCL: Running for 1000 steps without repeating first step
ETITLE: TS BOND ANGLE DIHED IMPRP ELECT VDW BOUNDARY MISC KINETIC TOTAL TEMP POTENTIAL TOTAL3 TEMPAVG PRESSURE GPRESSURE VOLUME PRESSAVG GPRESSAVG
ENERGY: 180000 163.2797 498.1443 474.6870 40.5027 -1099.2269 -129.2866 0.0000 0.0000 705.1067 653.2070 330.2242 -51.8997 663.4586 300.5046 -14.8347 -14.4233 216000.0000 -3.5621 -3.5537
TCL: namdcph) Proposal rejected.
TCL: Running for 1000 steps without repeating first step
TCL: namdcph) Proposal rejected.
TCL: Running for 1000 steps without repeating first step
TCL: namdcph) Proposal rejected.
TCL: Running for 1000 steps without repeating first step
TCL: namdcph) Proposal rejected.
TCL: Running for 1000 steps without repeating first step
TCL: namdcph) Proposal rejected.
TCL: Running for 1000 steps without repeating first step
ETITLE: TS BOND ANGLE DIHED IMPRP ELECT VDW BOUNDARY MISC KINETIC TOTAL TEMP POTENTIAL TOTAL3 TEMPAVG PRESSURE GPRESSURE VOLUME PRESSAVG GPRESSAVG
ENERGY: 185000 183.6459 527.6800 486.4692 28.6265 -1101.9377 -155.4316 0.0000 0.0000 623.9477 593.0001 292.2148 -30.9477 601.4286 301.7327 -260.2481 -262.8043 216000.0000 -8.8842 -8.8879
TCL: namdcph) Proposal rejected.
TCL: Running for 1000 steps without repeating first step
TCL: namdcph) Proposal rejected.
TCL: Running for 1000 steps without repeating first step
TCL: namdcph) Proposal rejected.
TCL: Running for 1000 steps without repeating first step
TCL: namdcph) Proposal rejected.
TCL: Running for 1000 steps without repeating first step
TCL: namdcph) Proposal rejected.
TCL: Running for 1000 steps without repeating first step
ETITLE: TS BOND ANGLE DIHED IMPRP ELECT VDW BOUNDARY MISC KINETIC TOTAL TEMP POTENTIAL TOTAL3 TEMPAVG PRESSURE GPRESSURE VOLUME PRESSAVG GPRESSAVG
ENERGY: 190000 166.5150 513.8897 476.4221 32.2642 -1098.0541 -142.5277 0.0000 0.0000 610.2337 558.7430 285.7921 -51.4907 566.2405 295.5500 -89.8764 -89.7217 216000.0000 -8.5380 -8.5454
TCL: namdcph) Proposal rejected.
TCL: Running for 1000 steps without repeating first step
TCL: namdcph) Proposal rejected.
TCL: Running for 1000 steps without repeating first step
TCL: namdcph) Proposal rejected.
TCL: Running for 1000 steps without repeating first step
TCL: namdcph) Proposal rejected.
TCL: Running for 1000 steps without repeating first step
TCL: namdcph) Proposal rejected.
TCL: Running for 1000 steps without repeating first step
