Info: SIMULATION PARAMETERS:
Info: TIMESTEP               2
Info: NUMBER OF STEPS        0
Info: STEPS PER CYCLE        20
Info: PERIODIC CELL BASIS 1  60 0 0
Info: PERIODIC CELL BASIS 2  0 60 0
Info: PERIODIC CELL BASIS 3  0 0 60
Info: PERIODIC CELL CENTER   0 0 0
Info: WRAPPING WATERS AROUND PERIODIC BOUNDARIES ON OUTPUT.
Info: WRAPPING ALL CLUSTERS AROUND PERIODIC BOUNDARIES ON OUTPUT.
Info: FIRST LDB TIMESTEP     100
Info: LAST LDB TIMESTEP     -1
Info: HOM BACKGROUND SCALING 1
Info: PME BACKGROUND SCALING 1
Info: MIN ATOMS PER PATCH    40
Info: INITIAL TEMPERATURE    298
Info: CENTER OF MASS MOVING INITIALLY? NO
Info: DIELECTRIC             1
Info: EXCLUDE                SCALED ONE-FOUR
Info: 1-4 ELECTROSTATICS SCALED BY 1
Info: MODIFIED 1-4 VDW PARAMETERS WILL BE USED
Info: DCD FILENAME           8.5/Pre85_0.dcd
Info: DCD FREQUENCY          5000
Info: DCD FIRST STEP         5000
Info: DCD FILE WILL CONTAIN UNIT CELL DATA
Info: NO EXTENDED SYSTEM TRAJECTORY OUTPUT
Info: NO VELOCITY DCD OUTPUT
Info: NO FORCE DCD OUTPUT
Info: OUTPUT FILENAME        8.5/Pre85_0
Info: BINARY OUTPUT FILES WILL BE USED
Info: NO RESTART FILE
Info: SWITCHING ACTIVE
Info: VDW FORCE SWITCHING ACTIVE
Info: SWITCHING ON           10
Info: SWITCHING OFF          12
Info: PAIRLIST DISTANCE      14
Info: PAIRLIST SHRINK RATE   0.01
Info: PAIRLIST GROW RATE     0.01
Info: PAIRLIST TRIGGER       0.3
Info: PAIRLISTS PER CYCLE    2
Info: PAIRLISTS ENABLED
Info: MARGIN                 2
Info: HYDROGEN GROUP CUTOFF  2.5
Info: PATCH DIMENSION        18.5
Info: ENERGY OUTPUT STEPS    5000
Info: CROSSTERM ENERGY INCLUDED IN DIHEDRAL
Info: TIMING OUTPUT STEPS    50000
Info: THERMODYNAMIC INTEGRATION (TI) ON
Info: TI LAMBDA VALUE     0
Info: TI INTRA-ALCHEMICAL NON-BONDED INTERACTIONS WILL BE DECOUPLED
Info: TI INTRA-ALCHEMICAL BONDED INTERACTIONS WILL BE DECOUPLED
Info: TI VDW SHIFTING COEFFICIENT 0
Info: TI ELEC. ACTIVE FOR ANNIHILATED PARTICLES BETWEEN LAMBDA = 0 AND LAMBDA = 1
Info: TI ELEC. ACTIVE FOR EXNIHILATED PARTICLES BETWEEN LAMBDA = 0 AND LAMBDA = 1
Info: TI VDW ACTIVE FOR ANNIHILATED PARTICLES BETWEEN LAMBDA = 0 AND LAMBDA = 1
Info: TI VDW ACTIVE FOR EXNIHILATED PARTICLES BETWEEN LAMBDA = 0 AND LAMBDA = 1
Info: TI BOND ACTIVE FOR ANNIHILATED PARTICLES BETWEEN LAMBDA = 0 AND LAMBDA = 1
Info: TI BOND ACTIVE FOR EXNIHILATED PARTICLES BETWEEN LAMBDA = 0 AND LAMBDA = 1
Info: LANGEVIN DYNAMICS ACTIVE
Info: LANGEVIN TEMPERATURE   298
Info: LANGEVIN USING BBK INTEGRATOR
Info: LANGEVIN DAMPING COEFFICIENT IS 1 INVERSE PS
Info: LANGEVIN DYNAMICS NOT APPLIED TO HYDROGENS
Info: PARTICLE MESH EWALD (PME) ACTIVE
Info: PME TOLERANCE               1e-06
Info: PME EWALD COEFFICIENT       0.257952
Info: PME INTERPOLATION ORDER     4
Info: PME GRID DIMENSIONS         60 60 60
Info: PME MAXIMUM GRID SPACING    1
Info: FULL ELECTROSTATIC EVALUATION FREQUENCY      2
Info: USING VERLET I (r-RESPA) MTS SCHEME.
Info: C1 SPLITTING OF LONG RANGE ELECTROSTATICS
Info: PLACING ATOMS IN PATCHES BY HYDROGEN GROUPS
Info: RIGID BONDS TO HYDROGEN : ALL
Info:         ERROR TOLERANCE : 1e-08
Info:          MAX ITERATIONS : 100
Info: RIGID WATER USING SETTLE ALGORITHM
Info: RANDOM NUMBER SEED     1685241710
Info: USE HYDROGEN BONDS?    NO
Info: COORDINATE PDB         ../topology/preD950N.pdb
Info: STRUCTURE FILE         ../topology/preD950N.psf
Info: PARAMETER file: CHARMM format!
Info: PARAMETERS             ../../toppar/par_all36_carb.prm
Info: PARAMETERS             ../../toppar/par_all36_cgenff.prm
Info: PARAMETERS             ../../toppar/par_all36_lipid.prm
Info: PARAMETERS             ../../toppar/par_all36_na.prm
Info: PARAMETERS             ../../toppar/par_all36_prot.prm
Info: PARAMETERS             ../../toppar/par_all36_solvent.prm
Info: PARAMETERS             ../../toppar/par_cph36_prot.prm
Info: PARAMETERS             ../../toppar/toppar_all36_carb_glycopeptide.str
Info: PARAMETERS             ../../toppar/toppar_water_ions_namd.str
Info: USING ARITHMETIC MEAN TO COMBINE L-J SIGMA PARAMETERS
Info: SKIPPING rtf SECTION IN STREAM FILE
Info: SKIPPING rtf SECTION IN STREAM FILE
Info: SUMMARY OF PARAMETERS:
Info: 925 BONDS
Info: 2696 ANGLES
Info: 6608 DIHEDRAL
Info: 195 IMPROPER
Info: 6 CROSSTERM
Info: 366 VDW
Info: 6 VDW_PAIRS
Info: 0 NBTHOLE_PAIRS
Info: READING EXTRA BONDS FILE 8.5/namdcph.sw.extrabonds
Info: To read alchdata from file: coordinate pdb file (default)
Info: To read alchflag data from column: 5
Info: LONG-RANGE LJ: APPLYING ANALYTICAL CORRECTIONS TO ENERGY AND PRESSURE
Info: LONG-RANGE LJ: AVERAGE A0 AND B0 COEFFICIENTS 257940 AND 189.542
Info: LONG-RANGE LJ: AVERAGE A1 AND B1 COEFFICIENTS 257940 AND 189.542
Info: STRUCTURE SUMMARY:
Info: 859 ATOMS
Info: 860 BONDS
Info: 1555 ANGLES
Info: 2254 DIHEDRALS
Info: 177 IMPROPERS
Info: 54 CROSSTERMS
Info: 0 EXCLUSIONS
Info: 436 RIGID BONDS
Info: ALCH: 0 ATOMS TO DISAPPEAR IN FINAL STATE
Info: ALCH: 0 ATOMS TO APPEAR IN FINAL STATE
Info: 2141 DEGREES OF FREEDOM
Info: 423 HYDROGEN GROUPS
Info: 4 ATOMS IN LARGEST HYDROGEN GROUP
Info: 423 MIGRATION GROUPS
Info: 4 ATOMS IN LARGEST MIGRATION GROUP
Info: TOTAL MASS = 6018.79 amu
Info: TOTAL CHARGE = 2 e
Info: MASS DENSITY = 0.0462716 g/cm^3
Info: ATOM DENSITY = 0.00397685 atoms/A^3
Info: ADDED 4663 IMPLICIT EXCLUSIONS
Info: NONBONDED TABLE R-SQUARED SPACING: 0.0625
Info: NONBONDED TABLE SIZE: 769 POINTS
Info: REMOVING COM VELOCITY -0.0874574 -0.141635 -0.210707
TCL: Setting parameter alchLambdaFreq to 1
Info: NONBONDED TABLE R-SQUARED SPACING: 0.0625
Info: NONBONDED TABLE SIZE: 769 POINTS
TCL: Setting parameter alch to off
Info: NONBONDED TABLE R-SQUARED SPACING: 0.0625
Info: NONBONDED TABLE SIZE: 769 POINTS
TCL: namdcph) initializing constant pH PSF...
TCL: WARNING! Building new atom PP1:918:HE1 with unknown mass.
TCL:          This may cause issues, for example, with mass repartitioning.
TCL: WARNING! Building new atom PP1:918:HE2 with unknown mass.
TCL:          This may cause issues, for example, with mass repartitioning.
TCL: WARNING! Building new atom PP1:936:HD1 with unknown mass.
TCL:          This may cause issues, for example, with mass repartitioning.
TCL: WARNING! Building new atom PP1:936:HD2 with unknown mass.
TCL:          This may cause issues, for example, with mass repartitioning.
TCL: cphpsfgen) creating new alchemical side chain for PP1:918:GLU
TCL: cphpsfgen) merging alchemical sidechains for PP1:918:GLU
TCL: cphpsfgen) creating new alchemical side chain for PP1:921:LYS
TCL: cphpsfgen) merging alchemical sidechains for PP1:921:LYS
TCL: cphpsfgen) creating new alchemical side chain for PP1:933:LYS
TCL: cphpsfgen) merging alchemical sidechains for PP1:933:LYS
TCL: cphpsfgen) creating new alchemical side chain for PP1:936:ASP
TCL: cphpsfgen) merging alchemical sidechains for PP1:936:ASP
TCL: cphpsfgen) creating new alchemical side chain for PP1:947:LYS
TCL: cphpsfgen) merging alchemical sidechains for PP1:947:LYS
TCL: cphpsfgen) creating new alchemical side chain for PP1:964:LYS
TCL: cphpsfgen) merging alchemical sidechains for PP1:964:LYS
TCL: namdcph) ***************************************
TCL: namdcph) CONSTANT pH MD ACTIVE
TCL: namdcph) SYSTEM pH 8.5
TCL: namdcph) CONSTANT pH CONFIGURATION FILE(S)
TCL: namdcph) ../../toppar/conf_cph36_prot.json
TCL: namdcph) NONEQUILIBRIUM SWITCH PARAMETERS:
TCL: namdcph) ALCHEMICAL FORCE CONSTANT 100.0 kcal/mol-A^2
TCL: namdcph) neMD/MC CRITERION TEMPERATURE 298.0
TCL: namdcph) TEMPORARY FILE INFORMATION:
TCL: namdcph) cpH TOPOLOGY FILE BASENAME 8.5/namdcph.md
TCL: namdcph) neMD/MC TRAJECTORY BASENAME 8.5/namdcph.sw
TCL: namdcph) ***************************************
TCL: namdcph) ***************************************
TCL: namdcph) TITRATABLE RESIDUE DEFINITIONS:
TCL: namdcph) HIS ASP GLU CYS LYS
TCL: namdcph) TITRATABLE SYSTEM SUMMARY:
TCL: namdcph) 6 RESIDUE(S)
TCL: namdcph) 16 PROTONATION SITE(S)
TCL: namdcph) ***************************************
TCL: namdcph) segid:resid:resname : state : pKai
TCL: namdcph) PP1:918:GLU         :     D : 4.68
TCL: namdcph) PP1:921:LYS         :     P : 10.47
TCL: namdcph) PP1:933:LYS         :     P : 10.42
TCL: namdcph) PP1:936:ASP         :     D : 3.83
TCL: namdcph) PP1:947:LYS         :     P : 10.47
TCL: namdcph) PP1:964:LYS         :     P : 10.40
TCL: namdcph) ***************************************
TCL: namdcph) *************************************************
TCL: namdcph) CONSTANT pH neMD/MC MOVES:
TCL: namdcph) MAX. ATTEMPTS PER CYCLE: 1
TCL: namdcph) ONE RESIDUE MOVES
TCL: namdcph) move label     : numsteps   weight
TCL: namdcph) PP1:918:GLU    :    75000     1.00
TCL: namdcph) PP1:921:LYS    :    75000     1.00
TCL: namdcph) PP1:933:LYS    :    75000     1.00
TCL: namdcph) PP1:936:ASP    :    75000     1.00
TCL: namdcph) PP1:947:LYS    :    75000     1.00
TCL: namdcph) PP1:964:LYS    :    75000     1.00
TCL: namdcph) *************************************************
TCL: namdcph) clearing extraBondsFile 8.5/namdcph.sw.extrabonds
TCL: Reloading molecular structure from file 8.5/namdcph.md.psf and pdb file 8.5/namdcph.md.pdb
Info: READING EXTRA BONDS FILE 8.5/namdcph.sw.extrabonds
Info: LONG-RANGE LJ: APPLYING ANALYTICAL CORRECTIONS TO ENERGY AND PRESSURE
Info: LONG-RANGE LJ: AVERAGE A AND B COEFFICIENTS 257940 AND 189.542
Info: STRUCTURE SUMMARY:
Info: 863 ATOMS
Info: 864 BONDS
Info: 1559 ANGLES
Info: 2262 DIHEDRALS
Info: 177 IMPROPERS
Info: 54 CROSSTERMS
Info: 0 EXCLUSIONS
Info: 440 RIGID BONDS
Info: 2149 DEGREES OF FREEDOM
Info: 423 HYDROGEN GROUPS
Info: 4 ATOMS IN LARGEST HYDROGEN GROUP
Info: 423 MIGRATION GROUPS
Info: 4 ATOMS IN LARGEST MIGRATION GROUP
Info: TOTAL MASS = 6022.82 amu
Info: TOTAL CHARGE = 2 e
Info: MASS DENSITY = 0.0463026 g/cm^3
Info: ATOM DENSITY = 0.00399537 atoms/A^3
Info: ADDED 4679 IMPLICIT EXCLUSIONS
Info: NONBONDED TABLE R-SQUARED SPACING: 0.0625
Info: NONBONDED TABLE SIZE: 769 POINTS
TCL: Reinitializing atom data from files with basename 8.5/namdcph.md
Info: REMOVING COM VELOCITY 0.00624913 0.000934682 -0.0212457
TCL: Minimizing for 100 steps
ETITLE: TS BOND ANGLE DIHED IMPRP ELECT VDW BOUNDARY MISC KINETIC TOTAL TEMP POTENTIAL TOTAL3 TEMPAVG PRESSURE GPRESSURE VOLUME PRESSAVG GPRESSAVG
ENERGY: 0 50.7174 99.6492 448.8524 0.5597 -655.8481 99999999999.9999 0.0000 0.0000 0.0000 99999999999.9999 0.0000 99999999999.9999 99999999999.9999 0.0000 99999999999.9999 99999999999.9999 216000.0000 99999999999.9999 99999999999.9999
ENERGY: 20 3555.9403 1179.2157 518.1111 80.2523 -676.8478 4401.3562 0.0000 0.0000 0.0000 9058.0278 0.0000 9058.0278 9058.0278 0.0000 5694.7745 6138.4307 216000.0000 5694.7745 6138.4307
ENERGY: 40 652.0906 1033.8467 522.8706 21.8032 -695.4075 1458.0947 0.0000 0.0000 0.0000 2993.2982 0.0000 2993.2982 2993.2982 0.0000 2694.7208 2818.7179 216000.0000 2694.7208 2818.7179
ENERGY: 60 228.5523 838.5874 540.9221 27.4815 -715.2870 718.9429 0.0000 0.0000 0.0000 1639.1992 0.0000 1639.1992 1639.1992 0.0000 1736.4875 1813.7232 216000.0000 1736.4875 1813.7232
ENERGY: 80 162.4418 530.5710 541.8954 28.8082 -733.2951 304.2884 0.0000 0.0000 0.0000 834.7097 0.0000 834.7097 834.7097 0.0000 1114.8093 1135.1808 216000.0000 1114.8093 1135.1808
ENERGY: 100 87.6172 422.4764 531.7660 16.9213 -739.4980 163.5337 0.0000 0.0000 0.0000 482.8165 0.0000 482.8165 482.8165 0.0000 762.0883 792.6659 216000.0000 762.0883 792.6659
TCL: Setting parameter firstTimeStep to 0
TCL: Running for 500 steps
ETITLE: TS BOND ANGLE DIHED IMPRP ELECT VDW BOUNDARY MISC KINETIC TOTAL TEMP POTENTIAL TOTAL3 TEMPAVG PRESSURE GPRESSURE VOLUME PRESSAVG GPRESSAVG
ENERGY: 0 87.6172 422.4764 531.7660 16.9213 -739.4980 163.5337 0.0000 0.0000 623.3757 1106.1922 291.9469 482.8165 1100.5092 291.9469 868.1274 869.6291 216000.0000 868.1274 869.6291
TCL: namdcph) Proposal rejected.
TCL: Running for 500 steps without repeating first step
TCL: namdcph) Proposal rejected.
TCL: Running for 500 steps without repeating first step
TCL: namdcph) Proposal rejected.
TCL: Running for 500 steps without repeating first step
TCL: namdcph) Proposal rejected.
TCL: Running for 500 steps without repeating first step
TCL: namdcph) Proposal rejected.
TCL: Running for 500 steps without repeating first step
TCL: namdcph) Proposal rejected.
TCL: Running for 500 steps without repeating first step
TCL: namdcph) Proposal rejected.
TCL: Running for 500 steps without repeating first step
TCL: namdcph) Proposal rejected.
TCL: Running for 500 steps without repeating first step
TCL: namdcph) Proposal rejected.
TCL: Running for 500 steps without repeating first step
ETITLE: TS BOND ANGLE DIHED IMPRP ELECT VDW BOUNDARY MISC KINETIC TOTAL TEMP POTENTIAL TOTAL3 TEMPAVG PRESSURE GPRESSURE VOLUME PRESSAVG GPRESSAVG
ENERGY: 5000 152.5168 503.1361 517.7811 35.5456 -1312.2909 -80.6229 0.0000 0.0000 626.4421 442.5077 293.3830 -183.9344 450.5561 306.5793 103.6806 103.6407 216000.0000 0.6741 0.6659
TCL: namdcph) Proposal rejected.
TCL: Running for 500 steps without repeating first step
TCL: namdcph) Proposal rejected.
TCL: Running for 500 steps without repeating first step
TCL: namdcph) Proposal rejected.
TCL: Running for 500 steps without repeating first step
TCL: namdcph) Proposal rejected.
TCL: Running for 500 steps without repeating first step
TCL: namdcph) Proposal rejected.
TCL: Running for 500 steps without repeating first step
TCL: namdcph) Proposal rejected.
TCL: Running for 500 steps without repeating first step
TCL: namdcph) Proposal rejected.
TCL: Running for 500 steps without repeating first step
TCL: namdcph) Proposal rejected.
TCL: Running for 500 steps without repeating first step
TCL: namdcph) Proposal rejected.
TCL: Running for 500 steps without repeating first step
TCL: namdcph) Proposal rejected.
TCL: Running for 500 steps without repeating first step
ETITLE: TS BOND ANGLE DIHED IMPRP ELECT VDW BOUNDARY MISC KINETIC TOTAL TEMP POTENTIAL TOTAL3 TEMPAVG PRESSURE GPRESSURE VOLUME PRESSAVG GPRESSAVG
ENERGY: 10000 168.4270 470.5981 489.3020 32.4587 -1309.3685 -97.3923 0.0000 0.0000 639.8941 393.9189 299.6830 -245.9751 402.8064 299.4639 -22.3789 -20.2574 216000.0000 -4.9053 -4.8992
TCL: namdcph) Proposal rejected.
TCL: Running for 500 steps without repeating first step
TCL: namdcph) Proposal rejected.
TCL: Running for 500 steps without repeating first step
TCL: namdcph) Proposal rejected.
TCL: Running for 500 steps without repeating first step
TCL: namdcph) Proposal rejected.
TCL: Running for 500 steps without repeating first step
TCL: namdcph) Proposal rejected.
TCL: Running for 500 steps without repeating first step
TCL: namdcph) Proposal rejected.
TCL: Running for 500 steps without repeating first step
TCL: namdcph) Proposal rejected.
TCL: Running for 500 steps without repeating first step
TCL: namdcph) Proposal rejected.
TCL: Running for 500 steps without repeating first step
TCL: namdcph) Proposal rejected.
TCL: Running for 500 steps without repeating first step
TCL: namdcph) Proposal rejected.
TCL: Running for 500 steps without repeating first step
ETITLE: TS BOND ANGLE DIHED IMPRP ELECT VDW BOUNDARY MISC KINETIC TOTAL TEMP POTENTIAL TOTAL3 TEMPAVG PRESSURE GPRESSURE VOLUME PRESSAVG GPRESSAVG
ENERGY: 15000 173.5806 507.8920 497.0765 38.5023 -1331.4812 -110.5723 0.0000 0.0000 653.8020 428.8000 306.1965 -225.0020 437.4935 298.3127 -171.4023 -169.5778 216000.0000 -8.2352 -8.2310
TCL: namdcph) Proposal rejected.
TCL: Running for 500 steps without repeating first step
TCL: namdcph) Proposal rejected.
TCL: Running for 500 steps without repeating first step
TCL: namdcph) Proposal rejected.
TCL: Running for 500 steps without repeating first step
TCL: namdcph) Proposal rejected.
TCL: Running for 500 steps without repeating first step
TCL: namdcph) Proposal rejected.
TCL: Running for 500 steps without repeating first step
TCL: namdcph) Proposal rejected.
TCL: Running for 500 steps without repeating first step
TCL: namdcph) Proposal rejected.
TCL: Running for 500 steps without repeating first step
TCL: namdcph) Proposal rejected.
TCL: Running for 500 steps without repeating first step
TCL: namdcph) Proposal rejected.
TCL: Running for 500 steps without repeating first step
TCL: namdcph) Proposal rejected.
TCL: Running for 500 steps without repeating first step
ETITLE: TS BOND ANGLE DIHED IMPRP ELECT VDW BOUNDARY MISC KINETIC TOTAL TEMP POTENTIAL TOTAL3 TEMPAVG PRESSURE GPRESSURE VOLUME PRESSAVG GPRESSAVG
ENERGY: 20000 163.6297 504.2378 500.3918 37.2442 -1342.0984 -114.2840 0.0000 0.0000 600.2745 349.3957 281.1279 -250.8789 356.2805 303.4790 -8.1042 -5.2099 216000.0000 -4.5720 -4.5814
TCL: namdcph) Proposal rejected.
TCL: Running for 500 steps without repeating first step
TCL: namdcph) Proposal rejected.
TCL: Running for 500 steps without repeating first step
TCL: namdcph) Proposal rejected.
TCL: Running for 500 steps without repeating first step
TCL: namdcph) Proposal rejected.
TCL: Running for 500 steps without repeating first step
TCL: namdcph) Proposal rejected.
TCL: Running for 500 steps without repeating first step
TCL: namdcph) Proposal rejected.
TCL: Running for 500 steps without repeating first step
TCL: namdcph) Proposal rejected.
TCL: Running for 500 steps without repeating first step
TCL: namdcph) Proposal rejected.
TCL: Running for 500 steps without repeating first step
TCL: namdcph) Proposal rejected.
TCL: Running for 500 steps without repeating first step
TCL: namdcph) Proposal rejected.
TCL: Running for 500 steps without repeating first step
ETITLE: TS BOND ANGLE DIHED IMPRP ELECT VDW BOUNDARY MISC KINETIC TOTAL TEMP POTENTIAL TOTAL3 TEMPAVG PRESSURE GPRESSURE VOLUME PRESSAVG GPRESSAVG
ENERGY: 25000 162.9077 533.0482 490.3201 35.0887 -1350.2480 -107.3802 0.0000 0.0000 640.7951 404.5316 300.1049 -236.2635 411.4469 292.7443 158.8478 161.6749 216000.0000 -3.2871 -3.2860
TCL: namdcph) Proposal rejected.
TCL: Running for 500 steps without repeating first step
TCL: namdcph) Proposal rejected.
TCL: Running for 500 steps without repeating first step
TCL: namdcph) Proposal rejected.
TCL: Running for 500 steps without repeating first step
TCL: namdcph) Proposal rejected.
TCL: Running for 500 steps without repeating first step
TCL: namdcph) Proposal rejected.
TCL: Running for 500 steps without repeating first step
TCL: namdcph) Proposal rejected.
TCL: Running for 500 steps without repeating first step
TCL: namdcph) Proposal rejected.
TCL: Running for 500 steps without repeating first step
TCL: namdcph) Proposal rejected.
TCL: Running for 500 steps without repeating first step
TCL: namdcph) Proposal rejected.
TCL: Running for 500 steps without repeating first step
TCL: namdcph) Proposal rejected.
TCL: Running for 500 steps without repeating first step
ETITLE: TS BOND ANGLE DIHED IMPRP ELECT VDW BOUNDARY MISC KINETIC TOTAL TEMP POTENTIAL TOTAL3 TEMPAVG PRESSURE GPRESSURE VOLUME PRESSAVG GPRESSAVG
ENERGY: 30000 173.2633 506.2210 491.5693 46.4867 -1333.9518 -114.9181 0.0000 0.0000 634.5538 403.2242 297.1819 -231.3296 410.7333 298.0858 -138.6409 -137.5910 216000.0000 -7.0355 -7.0449
TCL: namdcph) Proposal rejected.
TCL: Running for 500 steps without repeating first step
TCL: namdcph) Proposal rejected.
TCL: Running for 500 steps without repeating first step
TCL: namdcph) Proposal rejected.
TCL: Running for 500 steps without repeating first step
TCL: namdcph) Proposal rejected.
TCL: Running for 500 steps without repeating first step
TCL: namdcph) Proposal rejected.
TCL: Running for 500 steps without repeating first step
TCL: namdcph) Proposal rejected.
TCL: Running for 500 steps without repeating first step
TCL: namdcph) Proposal rejected.
TCL: Running for 500 steps without repeating first step
TCL: namdcph) Proposal rejected.
TCL: Running for 500 steps without repeating first step
TCL: namdcph) Proposal rejected.
TCL: Running for 500 steps without repeating first step
TCL: namdcph) Proposal rejected.
TCL: Running for 500 steps without repeating first step
ETITLE: TS BOND ANGLE DIHED IMPRP ELECT VDW BOUNDARY MISC KINETIC TOTAL TEMP POTENTIAL TOTAL3 TEMPAVG PRESSURE GPRESSURE VOLUME PRESSAVG GPRESSAVG
ENERGY: 35000 149.7129 515.3290 490.8784 33.7665 -1340.6714 -101.9399 0.0000 0.0000 623.9243 370.9998 292.2038 -252.9245 378.7293 289.8435 82.4628 82.2141 216000.0000 -1.5136 -1.5166
TCL: namdcph) Proposal rejected.
TCL: Running for 500 steps without repeating first step
TCL: namdcph) Proposal rejected.
TCL: Running for 500 steps without repeating first step
TCL: namdcph) Proposal rejected.
TCL: Running for 500 steps without repeating first step
TCL: namdcph) Proposal rejected.
TCL: Running for 500 steps without repeating first step
TCL: namdcph) Proposal rejected.
TCL: Running for 500 steps without repeating first step
TCL: namdcph) Proposal rejected.
TCL: Running for 500 steps without repeating first step
TCL: namdcph) Proposal rejected.
TCL: Running for 500 steps without repeating first step
TCL: namdcph) Proposal rejected.
TCL: Running for 500 steps without repeating first step
TCL: namdcph) Proposal rejected.
TCL: Running for 500 steps without repeating first step
TCL: namdcph) Proposal rejected.
TCL: Running for 500 steps without repeating first step
ETITLE: TS BOND ANGLE DIHED IMPRP ELECT VDW BOUNDARY MISC KINETIC TOTAL TEMP POTENTIAL TOTAL3 TEMPAVG PRESSURE GPRESSURE VOLUME PRESSAVG GPRESSAVG
ENERGY: 40000 149.2835 513.3004 495.9486 35.2604 -1340.4860 -108.8883 0.0000 0.0000 633.8914 378.3098 296.8717 -255.5815 385.6497 294.8724 -23.0469 -21.9983 216000.0000 -8.1553 -8.1720
TCL: namdcph) Proposal rejected.
TCL: Running for 500 steps without repeating first step
TCL: namdcph) Proposal rejected.
TCL: Running for 500 steps without repeating first step
TCL: namdcph) Proposal rejected.
TCL: Running for 500 steps without repeating first step
TCL: namdcph) Proposal rejected.
TCL: Running for 500 steps without repeating first step
TCL: namdcph) Proposal rejected.
TCL: Running for 500 steps without repeating first step
TCL: namdcph) Proposal rejected.
TCL: Running for 500 steps without repeating first step
TCL: namdcph) Proposal rejected.
TCL: Running for 500 steps without repeating first step
TCL: namdcph) Proposal rejected.
TCL: Running for 500 steps without repeating first step
TCL: namdcph) Proposal rejected.
TCL: Running for 500 steps without repeating first step
TCL: namdcph) Proposal rejected.
TCL: Running for 500 steps without repeating first step
ETITLE: TS BOND ANGLE DIHED IMPRP ELECT VDW BOUNDARY MISC KINETIC TOTAL TEMP POTENTIAL TOTAL3 TEMPAVG PRESSURE GPRESSURE VOLUME PRESSAVG GPRESSAVG
ENERGY: 45000 176.2728 492.8263 497.5948 43.7797 -1351.6713 -109.7620 0.0000 0.0000 627.8140 376.8543 294.0255 -250.9597 384.6755 294.4113 -99.1921 -99.6500 216000.0000 -3.1185 -3.1265
TCL: namdcph) Proposal rejected.
TCL: Running for 500 steps without repeating first step
TCL: namdcph) Proposal rejected.
TCL: Running for 500 steps without repeating first step
TCL: namdcph) Proposal rejected.
TCL: Running for 500 steps without repeating first step
TCL: namdcph) Proposal rejected.
TCL: Running for 500 steps without repeating first step
TCL: namdcph) Proposal rejected.
TCL: Running for 500 steps without repeating first step
TCL: namdcph) Proposal rejected.
TCL: Running for 500 steps without repeating first step
TCL: namdcph) Proposal rejected.
TCL: Running for 500 steps without repeating first step
TCL: namdcph) Proposal rejected.
TCL: Running for 500 steps without repeating first step
TCL: namdcph) Proposal rejected.
TCL: Running for 500 steps without repeating first step
TCL: namdcph) Proposal rejected.
TCL: Running for 500 steps without repeating first step
ETITLE: TS BOND ANGLE DIHED IMPRP ELECT VDW BOUNDARY MISC KINETIC TOTAL TEMP POTENTIAL TOTAL3 TEMPAVG PRESSURE GPRESSURE VOLUME PRESSAVG GPRESSAVG
ENERGY: 50000 154.0935 516.6149 489.8050 37.0393 -1365.6659 -122.8417 0.0000 0.0000 642.6606 351.7057 300.9786 -290.9549 359.8864 297.2249 30.9483 33.4269 216000.0000 -9.6367 -9.6393
TCL: namdcph) Proposal rejected.
TCL: Running for 500 steps without repeating first step
TCL: namdcph) Proposal rejected.
TCL: Running for 500 steps without repeating first step
TCL: namdcph) Proposal rejected.
TCL: Running for 500 steps without repeating first step
TCL: namdcph) Proposal rejected.
TCL: Running for 500 steps without repeating first step
TCL: namdcph) Proposal rejected.
TCL: Running for 500 steps without repeating first step
TCL: namdcph) Proposal rejected.
TCL: Running for 500 steps without repeating first step
TCL: namdcph) Proposal rejected.
TCL: Running for 500 steps without repeating first step
TCL: namdcph) Proposal rejected.
TCL: Running for 500 steps without repeating first step
TCL: namdcph) Proposal rejected.
TCL: Running for 500 steps without repeating first step
TCL: namdcph) Proposal rejected.
TCL: Running for 500 steps without repeating first step
ETITLE: TS BOND ANGLE DIHED IMPRP ELECT VDW BOUNDARY MISC KINETIC TOTAL TEMP POTENTIAL TOTAL3 TEMPAVG PRESSURE GPRESSURE VOLUME PRESSAVG GPRESSAVG
ENERGY: 55000 163.0120 482.3370 491.6755 31.7240 -1336.4669 -100.3186 0.0000 0.0000 664.2729 396.2359 311.1004 -268.0370 405.3451 297.6652 -57.9038 -56.7328 216000.0000 -3.4131 -3.4162
TCL: namdcph) Proposal rejected.
TCL: Running for 500 steps without repeating first step
TCL: namdcph) Proposal rejected.
TCL: Running for 500 steps without repeating first step
TCL: namdcph) Proposal rejected.
TCL: Running for 500 steps without repeating first step
TCL: namdcph) Proposal rejected.
TCL: Running for 500 steps without repeating first step
TCL: namdcph) Proposal rejected.
TCL: Running for 500 steps without repeating first step
TCL: namdcph) Proposal rejected.
TCL: Running for 500 steps without repeating first step
TCL: namdcph) Proposal rejected.
TCL: Running for 500 steps without repeating first step
TCL: namdcph) Proposal rejected.
TCL: Running for 500 steps without repeating first step
TCL: namdcph) Proposal rejected.
TCL: Running for 500 steps without repeating first step
TCL: namdcph) Proposal rejected.
TCL: Running for 500 steps without repeating first step
ETITLE: TS BOND ANGLE DIHED IMPRP ELECT VDW BOUNDARY MISC KINETIC TOTAL TEMP POTENTIAL TOTAL3 TEMPAVG PRESSURE GPRESSURE VOLUME PRESSAVG GPRESSAVG
ENERGY: 60000 168.5873 535.5204 488.3204 45.1495 -1340.9566 -110.1761 0.0000 0.0000 635.5980 422.0431 297.6710 -213.5549 429.5817 298.1428 30.5286 33.2698 216000.0000 -5.7858 -5.7845
TCL: namdcph) Proposal rejected.
TCL: Running for 500 steps without repeating first step
TCL: namdcph) Proposal rejected.
TCL: Running for 500 steps without repeating first step
TCL: namdcph) Proposal rejected.
TCL: Running for 500 steps without repeating first step
TCL: namdcph) Proposal rejected.
TCL: Running for 500 steps without repeating first step
TCL: namdcph) Proposal rejected.
TCL: Running for 500 steps without repeating first step
TCL: namdcph) Proposal rejected.
TCL: Running for 500 steps without repeating first step
TCL: namdcph) Proposal rejected.
TCL: Running for 500 steps without repeating first step
TCL: namdcph) Proposal rejected.
TCL: Running for 500 steps without repeating first step
TCL: namdcph) Proposal rejected.
TCL: Running for 500 steps without repeating first step
TCL: namdcph) Proposal rejected.
TCL: Running for 500 steps without repeating first step
ETITLE: TS BOND ANGLE DIHED IMPRP ELECT VDW BOUNDARY MISC KINETIC TOTAL TEMP POTENTIAL TOTAL3 TEMPAVG PRESSURE GPRESSURE VOLUME PRESSAVG GPRESSAVG
ENERGY: 65000 166.4594 523.4277 485.9535 43.8685 -1358.7924 -114.2297 0.0000 0.0000 649.0502 395.7372 303.9711 -253.3130 402.7974 300.0046 28.2028 30.1107 216000.0000 -6.9104 -6.9063
TCL: namdcph) Proposal rejected.
TCL: Running for 500 steps without repeating first step
TCL: namdcph) Proposal rejected.
TCL: Running for 500 steps without repeating first step
TCL: namdcph) Proposal rejected.
TCL: Running for 500 steps without repeating first step
TCL: namdcph) Proposal rejected.
TCL: Running for 500 steps without repeating first step
TCL: namdcph) Proposal rejected.
TCL: Running for 500 steps without repeating first step
TCL: namdcph) Proposal rejected.
TCL: Running for 500 steps without repeating first step
TCL: namdcph) Proposal rejected.
TCL: Running for 500 steps without repeating first step
TCL: namdcph) Proposal rejected.
TCL: Running for 500 steps without repeating first step
TCL: namdcph) Proposal rejected.
TCL: Running for 500 steps without repeating first step
TCL: namdcph) Proposal rejected.
TCL: Running for 500 steps without repeating first step
ETITLE: TS BOND ANGLE DIHED IMPRP ELECT VDW BOUNDARY MISC KINETIC TOTAL TEMP POTENTIAL TOTAL3 TEMPAVG PRESSURE GPRESSURE VOLUME PRESSAVG GPRESSAVG
ENERGY: 70000 162.7238 485.5376 490.5481 30.9905 -1347.7734 -98.2726 0.0000 0.0000 638.3003 362.0542 298.9365 -276.2460 370.7177 299.9569 57.1499 57.8482 216000.0000 -11.6475 -11.6506
TCL: namdcph) Proposal rejected.
TCL: Running for 500 steps without repeating first step
TCL: namdcph) Proposal rejected.
TCL: Running for 500 steps without repeating first step
TCL: namdcph) Proposal rejected.
TCL: Running for 500 steps without repeating first step
TCL: namdcph) Proposal rejected.
TCL: Running for 500 steps without repeating first step
TCL: namdcph) Proposal rejected.
TCL: Running for 500 steps without repeating first step
TCL: namdcph) Proposal rejected.
TCL: Running for 500 steps without repeating first step
TCL: namdcph) Proposal rejected.
TCL: Running for 500 steps without repeating first step
TCL: namdcph) Proposal rejected.
TCL: Running for 500 steps without repeating first step
TCL: namdcph) Proposal rejected.
TCL: Running for 500 steps without repeating first step
TCL: namdcph) Proposal rejected.
TCL: Running for 500 steps without repeating first step
ETITLE: TS BOND ANGLE DIHED IMPRP ELECT VDW BOUNDARY MISC KINETIC TOTAL TEMP POTENTIAL TOTAL3 TEMPAVG PRESSURE GPRESSURE VOLUME PRESSAVG GPRESSAVG
ENERGY: 75000 156.0043 506.9735 482.9001 35.7687 -1336.6052 -127.5368 0.0000 0.0000 617.5719 335.0764 289.2288 -282.4956 342.8444 294.7004 19.2910 20.0977 216000.0000 -5.5750 -5.5883
TCL: namdcph) Proposal rejected.
TCL: Running for 500 steps without repeating first step
TCL: namdcph) Proposal rejected.
TCL: Running for 500 steps without repeating first step
TCL: namdcph) Proposal rejected.
TCL: Running for 500 steps without repeating first step
TCL: namdcph) Proposal rejected.
TCL: Running for 500 steps without repeating first step
TCL: namdcph) Proposal rejected.
TCL: Running for 500 steps without repeating first step
TCL: namdcph) Proposal rejected.
TCL: Running for 500 steps without repeating first step
TCL: namdcph) Proposal rejected.
TCL: Running for 500 steps without repeating first step
TCL: namdcph) Proposal rejected.
TCL: Running for 500 steps without repeating first step
TCL: namdcph) Proposal rejected.
TCL: Running for 500 steps without repeating first step
TCL: namdcph) Proposal rejected.
TCL: Running for 500 steps without repeating first step
ETITLE: TS BOND ANGLE DIHED IMPRP ELECT VDW BOUNDARY MISC KINETIC TOTAL TEMP POTENTIAL TOTAL3 TEMPAVG PRESSURE GPRESSURE VOLUME PRESSAVG GPRESSAVG
ENERGY: 80000 165.4167 522.5120 492.2450 35.1603 -1347.0000 -114.7368 0.0000 0.0000 615.8270 369.4242 288.4116 -246.4028 378.4114 295.4466 -120.6453 -119.9589 216000.0000 -5.8919 -5.8958
TCL: namdcph) Proposal rejected.
TCL: Running for 500 steps without repeating first step
TCL: namdcph) Proposal rejected.
TCL: Running for 500 steps without repeating first step
TCL: namdcph) Proposal rejected.
TCL: Running for 500 steps without repeating first step
TCL: namdcph) Proposal rejected.
TCL: Running for 500 steps without repeating first step
TCL: namdcph) Proposal rejected.
TCL: Running for 500 steps without repeating first step
TCL: namdcph) Proposal rejected.
TCL: Running for 500 steps without repeating first step
TCL: namdcph) Proposal rejected.
TCL: Running for 500 steps without repeating first step
TCL: namdcph) Proposal rejected.
TCL: Running for 500 steps without repeating first step
TCL: namdcph) Proposal rejected.
TCL: Running for 500 steps without repeating first step
TCL: namdcph) Proposal rejected.
TCL: Running for 500 steps without repeating first step
ETITLE: TS BOND ANGLE DIHED IMPRP ELECT VDW BOUNDARY MISC KINETIC TOTAL TEMP POTENTIAL TOTAL3 TEMPAVG PRESSURE GPRESSURE VOLUME PRESSAVG GPRESSAVG
ENERGY: 85000 157.4139 509.2162 488.6046 38.1961 -1310.6195 -106.7890 0.0000 0.0000 581.0759 357.0982 272.1365 -223.9778 362.9073 295.3802 49.3767 48.1231 216000.0000 -7.2858 -7.2854
TCL: namdcph) Proposal rejected.
TCL: Running for 500 steps without repeating first step
TCL: namdcph) Proposal rejected.
TCL: Running for 500 steps without repeating first step
TCL: namdcph) Proposal rejected.
TCL: Running for 500 steps without repeating first step
TCL: namdcph) Proposal rejected.
TCL: Running for 500 steps without repeating first step
TCL: namdcph) Proposal rejected.
TCL: Running for 500 steps without repeating first step
TCL: namdcph) Proposal rejected.
TCL: Running for 500 steps without repeating first step
TCL: namdcph) Proposal rejected.
TCL: Running for 500 steps without repeating first step
TCL: namdcph) Proposal rejected.
TCL: Running for 500 steps without repeating first step
TCL: namdcph) Proposal rejected.
TCL: Running for 500 steps without repeating first step
TCL: namdcph) Proposal rejected.
TCL: Running for 500 steps without repeating first step
ETITLE: TS BOND ANGLE DIHED IMPRP ELECT VDW BOUNDARY MISC KINETIC TOTAL TEMP POTENTIAL TOTAL3 TEMPAVG PRESSURE GPRESSURE VOLUME PRESSAVG GPRESSAVG
ENERGY: 90000 172.7033 506.3529 484.0262 34.3804 -1355.2637 -120.0113 0.0000 0.0000 648.9128 371.1007 303.9067 -277.8121 379.9007 294.1835 -69.7726 -67.0523 216000.0000 -1.7109 -1.7013
TCL: namdcph) Proposal rejected.
TCL: Running for 500 steps without repeating first step
TCL: namdcph) Proposal rejected.
TCL: Running for 500 steps without repeating first step
TCL: namdcph) Proposal rejected.
TCL: Running for 500 steps without repeating first step
TCL: namdcph) Proposal rejected.
TCL: Running for 500 steps without repeating first step
TCL: namdcph) Proposal rejected.
TCL: Running for 500 steps without repeating first step
TCL: namdcph) Proposal rejected.
TCL: Running for 500 steps without repeating first step
TCL: namdcph) Proposal rejected.
TCL: Running for 500 steps without repeating first step
TCL: namdcph) Proposal rejected.
TCL: Running for 500 steps without repeating first step
TCL: namdcph) Proposal rejected.
TCL: Running for 500 steps without repeating first step
TCL: namdcph) Proposal rejected.
TCL: Running for 500 steps without repeating first step
ETITLE: TS BOND ANGLE DIHED IMPRP ELECT VDW BOUNDARY MISC KINETIC TOTAL TEMP POTENTIAL TOTAL3 TEMPAVG PRESSURE GPRESSURE VOLUME PRESSAVG GPRESSAVG
ENERGY: 95000 172.3751 506.8688 485.1451 31.1402 -1329.9120 -111.2155 0.0000 0.0000 677.7965 432.1982 317.4339 -245.5983 439.3951 298.3156 67.2542 68.3830 216000.0000 -1.4545 -1.4516
TCL: namdcph) Proposal rejected.
TCL: Running for 500 steps without repeating first step
TCL: namdcph) Proposal rejected.
TCL: Running for 500 steps without repeating first step
TCL: namdcph) Proposal rejected.
TCL: Running for 500 steps without repeating first step
TCL: namdcph) Proposal rejected.
TCL: Running for 500 steps without repeating first step
TCL: namdcph) Proposal rejected.
TCL: Running for 500 steps without repeating first step
TCL: namdcph) Proposal rejected.
TCL: Running for 500 steps without repeating first step
TCL: namdcph) Proposal rejected.
TCL: Running for 500 steps without repeating first step
TCL: namdcph) Proposal rejected.
TCL: Running for 500 steps without repeating first step
TCL: namdcph) Proposal rejected.
TCL: Running for 500 steps without repeating first step
TCL: namdcph) Proposal rejected.
TCL: Running for 500 steps without repeating first step
ETITLE: TS BOND ANGLE DIHED IMPRP ELECT VDW BOUNDARY MISC KINETIC TOTAL TEMP POTENTIAL TOTAL3 TEMPAVG PRESSURE GPRESSURE VOLUME PRESSAVG GPRESSAVG
ENERGY: 100000 160.7258 519.1959 491.4483 33.8615 -1348.2219 -115.0303 0.0000 0.0000 641.2049 383.1841 300.2969 -258.0208 391.5220 301.1906 6.7462 5.1371 216000.0000 -5.6827 -5.6773
TCL: namdcph) Proposal rejected.
TCL: Running for 500 steps without repeating first step
TCL: namdcph) Proposal rejected.
TCL: Running for 500 steps without repeating first step
TCL: namdcph) Proposal rejected.
TCL: Running for 500 steps without repeating first step
TCL: namdcph) Proposal rejected.
TCL: Running for 500 steps without repeating first step
TCL: namdcph) Proposal rejected.
TCL: Running for 500 steps without repeating first step
TCL: namdcph) Proposal rejected.
TCL: Running for 500 steps without repeating first step
TCL: namdcph) Proposal rejected.
TCL: Running for 500 steps without repeating first step
TCL: namdcph) Proposal rejected.
TCL: Running for 500 steps without repeating first step
TCL: namdcph) Proposal rejected.
TCL: Running for 500 steps without repeating first step
TCL: namdcph) Proposal rejected.
TCL: Running for 500 steps without repeating first step
ETITLE: TS BOND ANGLE DIHED IMPRP ELECT VDW BOUNDARY MISC KINETIC TOTAL TEMP POTENTIAL TOTAL3 TEMPAVG PRESSURE GPRESSURE VOLUME PRESSAVG GPRESSAVG
ENERGY: 105000 184.8511 506.4039 494.8710 34.9188 -1374.3148 -114.0082 0.0000 0.0000 607.1862 339.9080 284.3648 -267.2781 346.9425 295.4041 -90.8307 -86.7207 216000.0000 -8.8060 -8.8213
TCL: namdcph) Proposal rejected.
TCL: Running for 500 steps without repeating first step
TCL: namdcph) Proposal rejected.
TCL: Running for 500 steps without repeating first step
TCL: namdcph) Proposal rejected.
TCL: Running for 500 steps without repeating first step
TCL: namdcph) Proposal rejected.
TCL: Running for 500 steps without repeating first step
TCL: namdcph) Proposal rejected.
TCL: Running for 500 steps without repeating first step
TCL: namdcph) Proposal rejected.
TCL: Running for 500 steps without repeating first step
TCL: namdcph) Proposal rejected.
TCL: Running for 500 steps without repeating first step
TCL: namdcph) Proposal rejected.
TCL: Running for 500 steps without repeating first step
TCL: namdcph) Proposal rejected.
TCL: Running for 500 steps without repeating first step
TCL: namdcph) Proposal rejected.
TCL: Running for 500 steps without repeating first step
ETITLE: TS BOND ANGLE DIHED IMPRP ELECT VDW BOUNDARY MISC KINETIC TOTAL TEMP POTENTIAL TOTAL3 TEMPAVG PRESSURE GPRESSURE VOLUME PRESSAVG GPRESSAVG
ENERGY: 110000 179.9941 507.8954 492.5919 33.2050 -1352.7850 -110.3131 0.0000 0.0000 668.0283 418.6166 312.8591 -249.4117 427.1432 296.7040 -117.9778 -116.3695 216000.0000 -5.6483 -5.6531
TCL: namdcph) Proposal rejected.
TCL: Running for 500 steps without repeating first step
TCL: namdcph) Proposal rejected.
TCL: Running for 500 steps without repeating first step
TCL: namdcph) Proposal rejected.
TCL: Running for 500 steps without repeating first step
TCL: namdcph) Proposal rejected.
TCL: Running for 500 steps without repeating first step
TCL: namdcph) Proposal rejected.
TCL: Running for 500 steps without repeating first step
TCL: namdcph) Proposal rejected.
TCL: Running for 500 steps without repeating first step
TCL: namdcph) Proposal rejected.
TCL: Running for 500 steps without repeating first step
TCL: namdcph) Proposal rejected.
TCL: Running for 500 steps without repeating first step
TCL: namdcph) Proposal rejected.
TCL: Running for 500 steps without repeating first step
TCL: namdcph) Proposal rejected.
TCL: Running for 500 steps without repeating first step
ETITLE: TS BOND ANGLE DIHED IMPRP ELECT VDW BOUNDARY MISC KINETIC TOTAL TEMP POTENTIAL TOTAL3 TEMPAVG PRESSURE GPRESSURE VOLUME PRESSAVG GPRESSAVG
ENERGY: 115000 145.1192 521.2154 482.7866 36.0862 -1340.3246 -104.1432 0.0000 0.0000 618.1233 358.8629 289.4870 -259.2604 368.0464 296.7503 38.1218 37.8598 216000.0000 -6.8974 -6.8933
TCL: namdcph) Proposal rejected.
TCL: Running for 500 steps without repeating first step
TCL: namdcph) Proposal rejected.
TCL: Running for 500 steps without repeating first step
TCL: namdcph) Proposal rejected.
TCL: Running for 500 steps without repeating first step
TCL: namdcph) Proposal rejected.
TCL: Running for 500 steps without repeating first step
TCL: namdcph) Proposal rejected.
TCL: Running for 500 steps without repeating first step
TCL: namdcph) Proposal rejected.
TCL: Running for 500 steps without repeating first step
TCL: namdcph) Proposal rejected.
TCL: Running for 500 steps without repeating first step
TCL: namdcph) Proposal rejected.
TCL: Running for 500 steps without repeating first step
TCL: namdcph) Proposal rejected.
TCL: Running for 500 steps without repeating first step
TCL: namdcph) Proposal rejected.
TCL: Running for 500 steps without repeating first step
ETITLE: TS BOND ANGLE DIHED IMPRP ELECT VDW BOUNDARY MISC KINETIC TOTAL TEMP POTENTIAL TOTAL3 TEMPAVG PRESSURE GPRESSURE VOLUME PRESSAVG GPRESSAVG
ENERGY: 120000 181.6103 527.0517 486.7371 32.8457 -1340.3712 -108.6533 0.0000 0.0000 636.5356 415.7559 298.1101 -220.7797 422.9196 295.3677 -31.8372 -31.4554 216000.0000 -5.2438 -5.2462
TCL: namdcph) Proposal rejected.
TCL: Running for 500 steps without repeating first step
TCL: namdcph) Proposal rejected.
TCL: Running for 500 steps without repeating first step
TCL: namdcph) Proposal rejected.
TCL: Running for 500 steps without repeating first step
TCL: namdcph) Proposal rejected.
TCL: Running for 500 steps without repeating first step
TCL: namdcph) Proposal rejected.
TCL: Running for 500 steps without repeating first step
TCL: namdcph) Proposal rejected.
TCL: Running for 500 steps without repeating first step
TCL: namdcph) Proposal rejected.
TCL: Running for 500 steps without repeating first step
TCL: namdcph) Proposal rejected.
TCL: Running for 500 steps without repeating first step
TCL: namdcph) Proposal rejected.
TCL: Running for 500 steps without repeating first step
TCL: namdcph) Proposal rejected.
TCL: Running for 500 steps without repeating first step
ETITLE: TS BOND ANGLE DIHED IMPRP ELECT VDW BOUNDARY MISC KINETIC TOTAL TEMP POTENTIAL TOTAL3 TEMPAVG PRESSURE GPRESSURE VOLUME PRESSAVG GPRESSAVG
ENERGY: 125000 155.7648 514.6804 492.4049 40.0399 -1362.1222 -99.4844 0.0000 0.0000 635.3870 376.6702 297.5722 -258.7168 384.2403 300.1730 55.8223 57.1977 216000.0000 -8.1783 -8.1793
TCL: namdcph) Proposal rejected.
TCL: Running for 500 steps without repeating first step
TCL: namdcph) Proposal rejected.
TCL: Running for 500 steps without repeating first step
TCL: namdcph) Proposal rejected.
TCL: Running for 500 steps without repeating first step
TCL: namdcph) Proposal rejected.
TCL: Running for 500 steps without repeating first step
TCL: namdcph) Proposal rejected.
TCL: Running for 500 steps without repeating first step
TCL: namdcph) Proposal rejected.
TCL: Running for 500 steps without repeating first step
TCL: namdcph) Proposal rejected.
TCL: Running for 500 steps without repeating first step
TCL: namdcph) Proposal rejected.
TCL: Running for 500 steps without repeating first step
TCL: namdcph) Proposal rejected.
TCL: Running for 500 steps without repeating first step
TCL: namdcph) Proposal rejected.
TCL: Running for 500 steps without repeating first step
ETITLE: TS BOND ANGLE DIHED IMPRP ELECT VDW BOUNDARY MISC KINETIC TOTAL TEMP POTENTIAL TOTAL3 TEMPAVG PRESSURE GPRESSURE VOLUME PRESSAVG GPRESSAVG
ENERGY: 130000 157.6161 492.6590 483.3613 41.0253 -1323.6068 -107.8808 0.0000 0.0000 623.0247 366.1989 291.7825 -256.8258 374.5463 300.1224 -53.2764 -52.0674 216000.0000 -9.2805 -9.2786
TCL: namdcph) Proposal rejected.
TCL: Running for 500 steps without repeating first step
TCL: namdcph) Proposal rejected.
TCL: Running for 500 steps without repeating first step
TCL: namdcph) Proposal rejected.
TCL: Running for 500 steps without repeating first step
TCL: namdcph) Proposal rejected.
TCL: Running for 500 steps without repeating first step
TCL: namdcph) Proposal rejected.
TCL: Running for 500 steps without repeating first step
TCL: namdcph) Proposal rejected.
TCL: Running for 500 steps without repeating first step
TCL: namdcph) Proposal rejected.
TCL: Running for 500 steps without repeating first step
TCL: namdcph) Proposal rejected.
TCL: Running for 500 steps without repeating first step
TCL: namdcph) Proposal rejected.
TCL: Running for 500 steps without repeating first step
TCL: namdcph) Proposal rejected.
TCL: Running for 500 steps without repeating first step
ETITLE: TS BOND ANGLE DIHED IMPRP ELECT VDW BOUNDARY MISC KINETIC TOTAL TEMP POTENTIAL TOTAL3 TEMPAVG PRESSURE GPRESSURE VOLUME PRESSAVG GPRESSAVG
ENERGY: 135000 183.8583 494.1028 484.0462 41.8249 -1359.4324 -107.8714 0.0000 0.0000 615.5832 352.1115 288.2974 -263.4717 358.6008 300.1294 -84.4100 -79.2339 216000.0000 -4.8308 -4.8410
TCL: namdcph) Proposal rejected.
TCL: Running for 500 steps without repeating first step
TCL: namdcph) Proposal rejected.
TCL: Running for 500 steps without repeating first step
TCL: namdcph) Proposal rejected.
TCL: Running for 500 steps without repeating first step
TCL: namdcph) Proposal rejected.
TCL: Running for 500 steps without repeating first step
TCL: namdcph) Proposal rejected.
TCL: Running for 500 steps without repeating first step
TCL: namdcph) Proposal rejected.
TCL: Running for 500 steps without repeating first step
TCL: namdcph) Proposal rejected.
TCL: Running for 500 steps without repeating first step
TCL: namdcph) Proposal rejected.
TCL: Running for 500 steps without repeating first step
TCL: namdcph) Proposal accepted, attemping a switch.
TCL: Setting parameter outputEnergies to 75000
TCL: Setting parameter dcdFreq to 0
TCL: Setting parameter firstTimestep to 0
TCL: Setting parameter alch to on
Info: NONBONDED TABLE R-SQUARED SPACING: 0.0625
Info: NONBONDED TABLE SIZE: 769 POINTS
TCL: Writing to files with basename 8.5/namdcph.md.
TCL: cphpsfgen) creating new alchemical side chain for PP1:964:LYS
TCL: Reloading molecular structure from file 8.5/namdcph.sw.psf and pdb file 8.5/namdcph.sw.pdb
Info: READING EXTRA BONDS FILE 8.5/namdcph.sw.extrabonds
Info: READ 7 EXTRA BONDS
Info: To read alchdata from file: coordinate pdb file (default)
Info: To read alchflag data from column: 5
Info: LONG-RANGE LJ: APPLYING ANALYTICAL CORRECTIONS TO ENERGY AND PRESSURE
Info: LONG-RANGE LJ: AVERAGE A0 AND B0 COEFFICIENTS 257940 AND 189.542
Info: LONG-RANGE LJ: AVERAGE A1 AND B1 COEFFICIENTS 258542 AND 189.969
Info: STRUCTURE SUMMARY:
Info: 870 ATOMS
Info: 878 BONDS
Info: 1573 ANGLES
Info: 2283 DIHEDRALS
Info: 178 IMPROPERS
Info: 54 CROSSTERMS
Info: 0 EXCLUSIONS
Info: 445 RIGID BONDS
Info: ALCH: 7 ATOMS TO DISAPPEAR IN FINAL STATE
Info: ALCH: 7 ATOMS TO APPEAR IN FINAL STATE
Info: ALCH: 1 ANGLES LINKING INITIAL AND FINAL ATOMS DELETED
Info: ALCH: 6 DIHEDRALS LINKING INITIAL AND FINAL ATOMS DELETED
Info: 2165 DEGREES OF FREEDOM
Info: 425 HYDROGEN GROUPS
Info: 4 ATOMS IN LARGEST HYDROGEN GROUP
Info: 425 MIGRATION GROUPS
Info: 4 ATOMS IN LARGEST MIGRATION GROUP
Info: TOTAL MASS = 6053.88 amu
Info: TOTAL CHARGE = 2 e
Info: MASS DENSITY = 0.0465414 g/cm^3
Info: ATOM DENSITY = 0.00402778 atoms/A^3
Info: ADDED 4722 IMPLICIT EXCLUSIONS
Info: NONBONDED TABLE R-SQUARED SPACING: 0.0625
Info: NONBONDED TABLE SIZE: 769 POINTS
TCL: Reinitializing atom data from files with basename 8.5/namdcph.sw
Info: REMOVING COM VELOCITY -0.412726 0.0844667 0.0300451
TCL: Running for 75000 steps
ETITLE: TS BOND ANGLE DIHED IMPRP ELECT VDW BOUNDARY MISC KINETIC TOTAL TEMP POTENTIAL TOTAL3 TEMPAVG PRESSURE GPRESSURE VOLUME PRESSAVG GPRESSAVG
ENERGY: 0 184.0776 525.6619 487.3952 33.9789 -1359.1085 -113.6417 0.0000 0.0000 643.3057 401.6691 299.0542 -241.6367 409.1952 300.3671 -57.9859 -55.5504 216000.0000 -9.6529 -9.6614
ENERGY: 75000 182.6302 505.4613 488.9321 36.6092 -1269.4709 -116.9699 0.0000 0.0000 641.2252 468.4173 298.0870 -172.8079 475.8722 297.8015 -112.7240 -112.8916 216000.0000 -2.6085 -2.6092
TCL: Setting parameter outputEnergies to 5000
TCL: Setting parameter dcdFreq to 5000
TCL: namdcph) PP1:964:LYS:P:3 WorkCorr   -42.7000 CorrWork    44.9244
TCL: Setting parameter outputEnergies to 5000
TCL: Setting parameter dcdFreq to 5000
TCL: Setting parameter firstTimestep to 139000
TCL: namdcph) Switch rejected!
TCL: Setting parameter alch to off
Info: NONBONDED TABLE R-SQUARED SPACING: 0.0625
Info: NONBONDED TABLE SIZE: 769 POINTS
TCL: namdcph) clearing extraBondsFile 8.5/namdcph.sw.extrabonds
TCL: Reloading molecular structure from file 8.5/namdcph.md.psf and pdb file 8.5/namdcph.md.pdb
Info: READING EXTRA BONDS FILE 8.5/namdcph.sw.extrabonds
Info: LONG-RANGE LJ: APPLYING ANALYTICAL CORRECTIONS TO ENERGY AND PRESSURE
Info: LONG-RANGE LJ: AVERAGE A AND B COEFFICIENTS 257940 AND 189.542
Info: STRUCTURE SUMMARY:
Info: 863 ATOMS
Info: 864 BONDS
Info: 1559 ANGLES
Info: 2262 DIHEDRALS
Info: 177 IMPROPERS
Info: 54 CROSSTERMS
Info: 0 EXCLUSIONS
Info: 440 RIGID BONDS
Info: 2149 DEGREES OF FREEDOM
Info: 423 HYDROGEN GROUPS
Info: 4 ATOMS IN LARGEST HYDROGEN GROUP
Info: 423 MIGRATION GROUPS
Info: 4 ATOMS IN LARGEST MIGRATION GROUP
Info: TOTAL MASS = 6022.82 amu
Info: TOTAL CHARGE = 2 e
Info: MASS DENSITY = 0.0463026 g/cm^3
Info: ATOM DENSITY = 0.00399537 atoms/A^3
Info: ADDED 4679 IMPLICIT EXCLUSIONS
Info: NONBONDED TABLE R-SQUARED SPACING: 0.0625
Info: NONBONDED TABLE SIZE: 769 POINTS
TCL: Reinitializing atom data from files with basename 8.5/namdcph.md
Info: REMOVING COM VELOCITY -0.415853 0.0856879 0.0128603
TCL: Running for 500 steps
TCL: namdcph) Proposal rejected.
TCL: Running for 500 steps without repeating first step
ETITLE: TS BOND ANGLE DIHED IMPRP ELECT VDW BOUNDARY MISC KINETIC TOTAL TEMP POTENTIAL TOTAL3 TEMPAVG PRESSURE GPRESSURE VOLUME PRESSAVG GPRESSAVG
ENERGY: 140000 163.2075 510.2319 488.5849 36.0731 -1341.6837 -100.6246 0.0000 0.0000 609.9172 365.7064 285.6438 -244.2109 374.0990 298.1998 -0.0342 2.7034 216000.0000 -9.2619 -9.2952
TCL: namdcph) Proposal rejected.
TCL: Running for 500 steps without repeating first step
TCL: namdcph) Proposal rejected.
TCL: Running for 500 steps without repeating first step
TCL: namdcph) Proposal rejected.
TCL: Running for 500 steps without repeating first step
TCL: namdcph) Proposal rejected.
TCL: Running for 500 steps without repeating first step
TCL: namdcph) Proposal rejected.
TCL: Running for 500 steps without repeating first step
TCL: namdcph) Proposal rejected.
TCL: Running for 500 steps without repeating first step
TCL: namdcph) Proposal rejected.
TCL: Running for 500 steps without repeating first step
TCL: namdcph) Proposal rejected.
TCL: Running for 500 steps without repeating first step
TCL: namdcph) Proposal rejected.
TCL: Running for 500 steps without repeating first step
TCL: namdcph) Proposal rejected.
TCL: Running for 500 steps without repeating first step
ETITLE: TS BOND ANGLE DIHED IMPRP ELECT VDW BOUNDARY MISC KINETIC TOTAL TEMP POTENTIAL TOTAL3 TEMPAVG PRESSURE GPRESSURE VOLUME PRESSAVG GPRESSAVG
ENERGY: 145000 165.9774 498.8246 488.3339 30.0391 -1363.0089 -105.4397 0.0000 0.0000 622.1343 336.8605 291.3655 -285.2737 343.6683 295.9573 -74.5529 -72.5900 216000.0000 -4.8601 -4.8555
TCL: namdcph) Proposal rejected.
TCL: Running for 500 steps without repeating first step
TCL: namdcph) Proposal accepted, attemping a switch.
TCL: Setting parameter outputEnergies to 75000
TCL: Setting parameter dcdFreq to 0
TCL: Setting parameter firstTimestep to 0
TCL: Setting parameter alch to on
Info: NONBONDED TABLE R-SQUARED SPACING: 0.0625
Info: NONBONDED TABLE SIZE: 769 POINTS
TCL: Writing to files with basename 8.5/namdcph.md.
TCL: cphpsfgen) creating new alchemical side chain for PP1:947:LYS
TCL: Reloading molecular structure from file 8.5/namdcph.sw.psf and pdb file 8.5/namdcph.sw.pdb
Info: READING EXTRA BONDS FILE 8.5/namdcph.sw.extrabonds
Info: READ 7 EXTRA BONDS
Info: To read alchdata from file: coordinate pdb file (default)
Info: To read alchflag data from column: 5
Info: LONG-RANGE LJ: APPLYING ANALYTICAL CORRECTIONS TO ENERGY AND PRESSURE
Info: LONG-RANGE LJ: AVERAGE A0 AND B0 COEFFICIENTS 257940 AND 189.542
Info: LONG-RANGE LJ: AVERAGE A1 AND B1 COEFFICIENTS 258542 AND 189.969
Info: STRUCTURE SUMMARY:
Info: 870 ATOMS
Info: 878 BONDS
Info: 1573 ANGLES
Info: 2283 DIHEDRALS
Info: 178 IMPROPERS
Info: 54 CROSSTERMS
Info: 0 EXCLUSIONS
Info: 445 RIGID BONDS
Info: ALCH: 7 ATOMS TO DISAPPEAR IN FINAL STATE
Info: ALCH: 7 ATOMS TO APPEAR IN FINAL STATE
Info: ALCH: 1 ANGLES LINKING INITIAL AND FINAL ATOMS DELETED
Info: ALCH: 6 DIHEDRALS LINKING INITIAL AND FINAL ATOMS DELETED
Info: 2165 DEGREES OF FREEDOM
Info: 425 HYDROGEN GROUPS
Info: 4 ATOMS IN LARGEST HYDROGEN GROUP
Info: 425 MIGRATION GROUPS
Info: 4 ATOMS IN LARGEST MIGRATION GROUP
Info: TOTAL MASS = 6053.88 amu
Info: TOTAL CHARGE = 2 e
Info: MASS DENSITY = 0.0465414 g/cm^3
Info: ATOM DENSITY = 0.00402778 atoms/A^3
Info: ADDED 4722 IMPLICIT EXCLUSIONS
Info: NONBONDED TABLE R-SQUARED SPACING: 0.0625
Info: NONBONDED TABLE SIZE: 769 POINTS
TCL: Reinitializing atom data from files with basename 8.5/namdcph.sw
Info: REMOVING COM VELOCITY 0.378627 0.319767 -0.247635
TCL: Running for 75000 steps
ETITLE: TS BOND ANGLE DIHED IMPRP ELECT VDW BOUNDARY MISC KINETIC TOTAL TEMP POTENTIAL TOTAL3 TEMPAVG PRESSURE GPRESSURE VOLUME PRESSAVG GPRESSAVG
ENERGY: 0 166.7670 500.6465 489.3337 39.3275 -1338.9374 -123.5154 0.0000 0.0000 615.9789 349.6008 286.3507 -266.3780 356.5880 292.0935 29.8849 30.9906 216000.0000 -11.1591 -11.1501
ENERGY: 75000 166.5012 523.6619 505.3455 35.1925 -1318.9440 -109.0232 0.0000 0.0000 633.7654 436.4993 294.6192 -197.2662 444.5452 297.4797 19.5203 17.9455 216000.0000 -3.5604 -3.5598
TCL: Setting parameter outputEnergies to 5000
TCL: Setting parameter dcdFreq to 5000
TCL: namdcph) PP1:947:LYS:P:2 WorkCorr   -42.7954 CorrWork    22.5369
TCL: Setting parameter outputEnergies to 5000
TCL: Setting parameter dcdFreq to 5000
TCL: Setting parameter firstTimestep to 145500
TCL: namdcph) Switch rejected!
TCL: Setting parameter alch to off
Info: NONBONDED TABLE R-SQUARED SPACING: 0.0625
Info: NONBONDED TABLE SIZE: 769 POINTS
TCL: namdcph) clearing extraBondsFile 8.5/namdcph.sw.extrabonds
TCL: Reloading molecular structure from file 8.5/namdcph.md.psf and pdb file 8.5/namdcph.md.pdb
Info: READING EXTRA BONDS FILE 8.5/namdcph.sw.extrabonds
Info: LONG-RANGE LJ: APPLYING ANALYTICAL CORRECTIONS TO ENERGY AND PRESSURE
Info: LONG-RANGE LJ: AVERAGE A AND B COEFFICIENTS 257940 AND 189.542
Info: STRUCTURE SUMMARY:
Info: 863 ATOMS
Info: 864 BONDS
Info: 1559 ANGLES
Info: 2262 DIHEDRALS
Info: 177 IMPROPERS
Info: 54 CROSSTERMS
Info: 0 EXCLUSIONS
Info: 440 RIGID BONDS
Info: 2149 DEGREES OF FREEDOM
Info: 423 HYDROGEN GROUPS
Info: 4 ATOMS IN LARGEST HYDROGEN GROUP
Info: 423 MIGRATION GROUPS
Info: 4 ATOMS IN LARGEST MIGRATION GROUP
Info: TOTAL MASS = 6022.82 amu
Info: TOTAL CHARGE = 2 e
Info: MASS DENSITY = 0.0463026 g/cm^3
Info: ATOM DENSITY = 0.00399537 atoms/A^3
Info: ADDED 4679 IMPLICIT EXCLUSIONS
Info: NONBONDED TABLE R-SQUARED SPACING: 0.0625
Info: NONBONDED TABLE SIZE: 769 POINTS
TCL: Reinitializing atom data from files with basename 8.5/namdcph.md
Info: REMOVING COM VELOCITY 0.361246 0.336097 -0.244257
TCL: Running for 500 steps
TCL: namdcph) Proposal rejected.
TCL: Running for 500 steps without repeating first step
TCL: namdcph) Proposal rejected.
TCL: Running for 500 steps without repeating first step
TCL: namdcph) Proposal rejected.
TCL: Running for 500 steps without repeating first step
TCL: namdcph) Proposal rejected.
TCL: Running for 500 steps without repeating first step
TCL: namdcph) Proposal rejected.
TCL: Running for 500 steps without repeating first step
TCL: namdcph) Proposal rejected.
TCL: Running for 500 steps without repeating first step
TCL: namdcph) Proposal rejected.
TCL: Running for 500 steps without repeating first step
TCL: namdcph) Proposal rejected.
TCL: Running for 500 steps without repeating first step
ETITLE: TS BOND ANGLE DIHED IMPRP ELECT VDW BOUNDARY MISC KINETIC TOTAL TEMP POTENTIAL TOTAL3 TEMPAVG PRESSURE GPRESSURE VOLUME PRESSAVG GPRESSAVG
ENERGY: 150000 181.2906 507.3684 491.2972 37.5462 -1367.8916 -112.3424 0.0000 0.0000 634.5596 371.8279 297.1847 -262.7317 379.4911 293.6874 -31.9688 -31.6290 216000.0000 -6.6194 -6.6262
TCL: namdcph) Proposal rejected.
TCL: namdcph) *************************************************
TCL: namdcph) CONSTANT pH MD STATISTICS:
TCL: namdcph) move label                : attempts accept. rate
TCL: namdcph) PP1:918:GLU               :        0         0.00
TCL: namdcph) PP1:921:LYS               :        0         0.00
TCL: namdcph) PP1:933:LYS               :        0         0.00
TCL: namdcph) PP1:936:ASP               :        0         0.00
TCL: namdcph) PP1:947:LYS               :        1         0.00
TCL: namdcph) PP1:964:LYS               :        1         0.00
TCL: namdcph) *************************************************
TCL: Exiting due to exit command.
